#	Name: ASD03081160
#	Creating user name:	WinNT
#	Creation time:	15. 06. 2019 20:27

#	Modifying user name:	WinNT
#	Modification time:	15. 06. 2019 20:27

#	Program:	/corina/corina34_cracker 3.40 0067  02.08.2006

@<TRIPOS>MOLECULE
ASD03081160
  29   32    0    0    0
SMALL
NO_CHARGES


@<TRIPOS>ATOM
   1 O1            -0.0161     1.3380     0.0094 O.3     
   2 C2             0.0021    -0.0041     0.0020 C.2     
   3 N3             1.2782    -0.4364    -0.0125 N.am    
   4 C4             2.1022     0.6856    -0.0143 C.ar    
   5 C5             1.2590     1.7995    -0.0003 C.ar    
   6 C6             1.7988     3.0719     0.0014 C.ar    
   7 C7             3.1848     3.2373    -0.0110 C.ar    
   8 C8             4.0220     2.1183    -0.0250 C.ar    
   9 C9             3.4804     0.8516    -0.0259 C.ar    
  10 O10           -0.9812    -0.7193     0.0082 O.2     
  11 O11            3.0908     5.7546     0.0030 O.3     
  12 N12            3.8679     6.6855     0.0001 N.2     
  13 C13            5.1012     6.2487    -0.0144 C.2     
  14 N14            5.0511     4.9004    -0.0209 N.2     
  15 C15            3.7665     4.5949    -0.0097 C.2     
  16 C16            7.5887     6.4879    -0.0387 C.ar    
  17 C17            6.3291     7.0828    -0.0227 C.ar    
  18 C18            6.2402     8.4770    -0.0150 C.ar    
  19 C19            7.4149     9.2101    -0.0237 C.ar    
  20 C20            8.6269     8.5449    -0.0396 C.ar    
  21 N21            8.6791     7.2268    -0.0469 N.ar    
  22 H22            1.5698    -1.3615    -0.0200 H       
  23 H23            1.1503     3.9354     0.0119 H       
  24 H24            5.0942     2.2468    -0.0349 H       
  25 H25            4.1282    -0.0125    -0.0367 H       
  26 H26            7.6720     5.4111    -0.0402 H       
  27 H27            5.2796     8.9706    -0.0030 H       
  28 H28            7.3846    10.2896    -0.0186 H       
  29 H29            9.5452     9.1134    -0.0464 H       
@<TRIPOS>BOND
   1    1    2 1
   2    1    5 1
   3    2    3 am
   4    2   10 2
   5    3    4 1
   6    3   22 1
   7    4    5 ar
   8    4    9 ar
   9    5    6 ar
  10    6    7 ar
  11    6   23 1
  12    7    8 ar
  13    7   15 1
  14    8    9 ar
  15    8   24 1
  16    9   25 1
  17   11   12 1
  18   11   15 1
  19   12   13 2
  20   13   14 1
  21   13   17 1
  22   14   15 2
  23   16   17 ar
  24   16   21 ar
  25   16   26 1
  26   17   18 ar
  27   18   19 ar
  28   18   27 1
  29   19   20 ar
  30   19   28 1
  31   20   21 ar
  32   20   29 1

#	End of record

