#	Name: ASD01410380
#	Creating user name:	WinNT
#	Creation time:	15. 06. 2019 19:17

#	Modifying user name:	WinNT
#	Modification time:	15. 06. 2019 19:17

#	Program:	/corina/corina34_cracker 3.40 0067  02.08.2006

@<TRIPOS>MOLECULE
ASD01410380
  23   24    0    0    0
SMALL
NO_CHARGES


@<TRIPOS>ATOM
   1 S1             0.0630     1.7572    -0.6291 S.3     
   2 C2             0.1489     0.0042    -0.8749 C.2     
   3 N3             1.4270    -0.3512    -0.7013 N.am    
   4 C4             2.3260     0.5723    -0.4045 C.2     
   5 C5             1.7966     1.9386    -0.2948 C.2     
   6 O6             3.5022     0.3104    -0.2351 O.2     
   7 S7            -1.1550    -1.0362    -1.2600 S.2     
   8 C8             2.4760     3.0761    -0.0054 C.2     
   9 C9             1.8029     4.3793    -0.1029 C.ar    
  10 C10            2.3153     5.4885     0.5791 C.ar    
  11 C11            1.6780     6.7071     0.4825 C.ar    
  12 C12            0.5340     6.8351    -0.2862 C.ar    
  13 C13            0.0207     5.7429    -0.9640 C.ar    
  14 C14            0.6495     4.5187    -0.8829 C.ar    
  15 N15            1.8006    -1.6589    -0.8294 N.3     
  16 H16            0.0391     7.7924    -0.3572 H       
  17 H17            3.5116     3.0245     0.2966 H       
  18 H18            3.2074     5.3900     1.1799 H       
  19 H19            2.0722     7.5642     1.0083 H       
  20 H20           -0.8724     5.8510    -1.5617 H       
  21 H21            0.2505     3.6685    -1.4162 H       
  22 H22            1.0083    -2.2408    -1.0566 H       
  23 H23            2.5325    -1.7602    -1.5166 H       
@<TRIPOS>BOND
   1    1    2 1
   2    1    5 1
   3    2    3 am
   4    2    7 2
   5    3    4 am
   6    3   15 1
   7    4    5 1
   8    4    6 2
   9    5    8 2
  10    8    9 1
  11    8   17 1
  12    9   10 ar
  13    9   14 ar
  14   10   11 ar
  15   10   18 1
  16   11   12 ar
  17   11   19 1
  18   12   13 ar
  19   12   16 1
  20   13   14 ar
  21   13   20 1
  22   14   21 1
  23   15   22 1
  24   15   23 1

#	End of record

