#	Name: ASD02198420
#	Creating user name:	WinNT
#	Creation time:	15. 06. 2019 20:19

#	Modifying user name:	WinNT
#	Modification time:	15. 06. 2019 20:19

#	Program:	/corina/corina34_cracker 3.40 0067  02.08.2006

@<TRIPOS>MOLECULE
ASD02198420
  35   37    0    0    0
SMALL
NO_CHARGES


@<TRIPOS>ATOM
   1 C1             0.1636     1.8642     0.1836 C.ar    
   2 S2             0.0745     0.1101     0.0434 S.o2    
   3 N3             0.0238    -0.5027     1.5810 N.am    
   4 C4            -1.0187    -0.1512     2.4375 C.ar    
   5 C5            -0.7779     0.0207     3.8185 C.ar    
   6 C6            -1.8554     0.3784     4.6651 C.ar    
   7 C7            -3.1385     0.5551     4.1228 C.ar    
   8 C8            -3.3412     0.3822     2.7871 C.ar    
   9 C9            -2.2908     0.0368     1.9422 C.ar    
  10 N10            0.4436    -0.1492     4.3312 N.ar    
  11 C11            0.6733     0.0085     5.6122 C.ar    
  12 C12           -0.3411     0.3595     6.5006 C.ar    
  13 C13           -1.6132     0.5493     6.0416 C.ar    
  14 O14           -1.1848    -0.1819    -0.5467 O.2     
  15 O15            1.3112    -0.3110    -0.5158 O.2     
  16 C16            1.3939     2.4905     0.2535 C.ar    
  17 C17           -0.9969     2.6146     0.2181 C.ar    
  18 C18           -0.9271     3.9908     0.3282 C.ar    
  19 C19            0.3032     4.6166     0.4042 C.ar    
  20 C20            1.4638     3.8666     0.3635 C.ar    
  21 C21            0.3793     6.1169     0.5236 C.3     
  22 H22            0.7194    -1.1062     1.8858 H       
  23 H23           -3.9636     0.8275     4.7641 H       
  24 H24           -4.3308     0.5195     2.3770 H       
  25 H25           -2.4768    -0.0943     0.8865 H       
  26 H26            1.6749    -0.1378     5.9888 H       
  27 H27           -0.1215     0.4817     7.5509 H       
  28 H28           -2.4116     0.8219     6.7160 H       
  29 H29            2.3006     1.9045     0.2223 H       
  30 H30           -1.9581     2.1257     0.1588 H       
  31 H31           -1.8337     4.5771     0.3544 H       
  32 H32            2.4249     4.3555     0.4229 H       
  33 H33            0.3753     6.3982     1.5767 H       
  34 H34            1.2975     6.4725     0.0561 H       
  35 H35           -0.4798     6.5652     0.0245 H       
@<TRIPOS>BOND
   1    1    2 1
   2    1   16 ar
   3    1   17 ar
   4    2    3 am
   5    2   14 2
   6    2   15 2
   7    3    4 1
   8    3   22 1
   9    4    5 ar
  10    4    9 ar
  11    5    6 ar
  12    5   10 ar
  13    6    7 ar
  14    6   13 ar
  15    7    8 ar
  16    7   23 1
  17    8    9 ar
  18    8   24 1
  19    9   25 1
  20   10   11 ar
  21   11   12 ar
  22   11   26 1
  23   12   13 ar
  24   12   27 1
  25   13   28 1
  26   16   20 ar
  27   16   29 1
  28   17   18 ar
  29   17   30 1
  30   18   19 ar
  31   18   31 1
  32   19   20 ar
  33   19   21 1
  34   20   32 1
  35   21   33 1
  36   21   34 1
  37   21   35 1

#	End of record

