#	Name: ASD03092851
#	Creating user name:	WinNT
#	Creation time:	15. 06. 2019 20:33

#	Modifying user name:	WinNT
#	Modification time:	15. 06. 2019 20:33

#	Program:	/corina/corina34_cracker 3.40 0067  02.08.2006

@<TRIPOS>MOLECULE
ASD03092851
  60   63    0    0    0
SMALL
NO_CHARGES


@<TRIPOS>ATOM
   1 C1            -0.0148     1.4999     0.0215 C.3     
   2 C2            -0.0004    -0.0300     0.0146 C.3     
   3 C3            -1.4163    -0.5458     0.0231 C.ar    
   4 C4            -2.0188    -0.8770     1.2019 C.ar    
   5 C5            -3.3241    -1.3535     1.2206 C.ar    
   6 C6            -4.0320    -1.5002     0.0617 C.ar    
   7 C7            -3.4436    -1.1697    -1.1568 C.ar    
   8 N8            -3.8727    -1.2014    -2.4578 N.pl3   
   9 N9            -2.8439    -0.7477    -3.2898 N.2     
  10 C10           -1.7984    -0.4355    -2.5786 C.2     
  11 C11           -2.1227    -0.6821    -1.1773 C.ar    
  12 C12           -5.1967    -1.6404    -2.9056 C.3     
  13 C13           -5.8969    -0.4896    -3.6319 C.3     
  14 C14           -7.2941    -0.9413    -4.0683 C.3     
  15 N15           -7.1668    -2.1692    -4.8651 N.am    
  16 C16           -6.4323    -3.3075    -4.2963 C.3     
  17 C17           -5.0447    -2.8292    -3.8574 C.3     
  18 C18           -7.7137    -2.2500    -6.0942 C.2     
  19 O19           -8.3987    -1.3382    -6.5160 O.2     
  20 N20           -7.5014    -3.3414    -6.8559 N.am    
  21 C21           -8.1852    -3.4800    -8.1441 C.3     
  22 H22           -9.1831    -3.0470    -8.0741 H       
  23 C23           -7.3872    -2.7500    -9.2263 C.3     
  24 C24           -8.1014    -2.8947   -10.5716 C.3     
  25 C25           -8.2129    -4.3772   -10.9329 C.3     
  26 H26           -7.2150    -4.8102   -11.0028 H       
  27 C27           -9.0109    -5.1073    -9.8507 C.3     
  28 C28           -8.2967    -4.9625    -8.5054 C.3     
  29 O29           -8.8800    -4.5124   -12.1894 O.3     
  30 C30           -8.4777    -5.6596   -12.9406 C.3     
  31 H31            1.0093     1.8730     0.0153 H       
  32 H32           -0.5388     1.8623    -0.8629 H       
  33 H33           -0.5253     1.8544     0.9170 H       
  34 H34            0.5101    -0.3845    -0.8809 H       
  35 H35            0.5236    -0.3924     0.8990 H       
  36 H36           -1.4758    -0.7682     2.1291 H       
  37 H37           -3.7843    -1.6113     2.1630 H       
  38 H38           -5.0456    -1.8718     0.0900 H       
  39 H39           -0.8601    -0.0584    -2.9579 H       
  40 H40           -5.7911    -1.9400    -2.0425 H       
  41 H41           -5.9838     0.3648    -2.9608 H       
  42 H42           -5.3157    -0.2060    -4.5094 H       
  43 H43           -7.9058    -1.1388    -3.1880 H       
  44 H44           -7.7587    -0.1611    -4.6711 H       
  45 H45           -6.9737    -3.6979    -3.4346 H       
  46 H46           -6.3283    -4.0884    -5.0495 H       
  47 H47           -4.4716    -2.5236    -4.7327 H       
  48 H48           -4.5252    -3.6400    -3.3467 H       
  49 H49           -6.8958    -4.0351    -6.5512 H       
  50 H50           -7.3078    -1.6938    -8.9689 H       
  51 H51           -6.3894    -3.1829    -9.2962 H       
  52 H52           -9.0993    -2.4617   -10.5017 H       
  53 H53           -7.5329    -2.3746   -11.3426 H       
  54 H54          -10.0088    -4.6743    -9.7808 H       
  55 H55           -9.0903    -6.1635   -10.1081 H       
  56 H56           -7.2989    -5.3955    -8.5753 H       
  57 H57           -8.8652    -5.4826    -7.7344 H       
  58 H58           -8.6876    -6.5619   -12.3662 H       
  59 H59           -9.0293    -5.6904   -13.8802 H       
  60 H60           -7.4092    -5.6015   -13.1482 H       
@<TRIPOS>BOND
   1    1    2 1
   2    1   31 1
   3    1   32 1
   4    1   33 1
   5    2    3 1
   6    2   34 1
   7    2   35 1
   8    3   11 ar
   9    3    4 ar
  10    4    5 ar
  11    4   36 1
  12    5    6 ar
  13    5   37 1
  14    6    7 ar
  15    6   38 1
  16    7   11 ar
  17    7    8 1
  18    8    9 1
  19    8   12 1
  20    9   10 2
  21   10   11 1
  22   10   39 1
  23   12   17 1
  24   12   13 1
  25   12   40 1
  26   13   14 1
  27   13   41 1
  28   13   42 1
  29   14   15 1
  30   14   43 1
  31   14   44 1
  32   15   16 1
  33   15   18 am
  34   16   17 1
  35   16   45 1
  36   16   46 1
  37   17   47 1
  38   17   48 1
  39   18   19 2
  40   18   20 am
  41   20   21 1
  42   20   49 1
  43   21   22 1
  44   21   28 1
  45   21   23 1
  46   23   24 1
  47   23   50 1
  48   23   51 1
  49   24   25 1
  50   24   52 1
  51   24   53 1
  52   25   26 1
  53   25   27 1
  54   25   29 1
  55   27   28 1
  56   27   54 1
  57   27   55 1
  58   28   56 1
  59   28   57 1
  60   29   30 1
  61   30   58 1
  62   30   59 1
  63   30   60 1

#	End of record

