#	Name: ASD01812195
#	Creating user name:	WinNT
#	Creation time:	15. 06. 2019 19:28

#	Modifying user name:	WinNT
#	Modification time:	15. 06. 2019 19:28

#	Program:	/corina/corina34_cracker 3.40 0067  02.08.2006

@<TRIPOS>MOLECULE
ASD01812195
  72   78    0    0    0
SMALL
NO_CHARGES


@<TRIPOS>ATOM
   1 C1             0.2185     1.6352     0.3233 C.ar    
   2 C2             0.2582     0.2426     0.3147 C.ar    
   3 C3             1.4414    -0.4247     0.2173 C.ar    
   4 C4             2.6421     0.2968     0.1234 C.ar    
   5 C5             2.6024     1.7155     0.1317 C.ar    
   6 C6             1.3614     2.3689     0.2342 C.ar    
   7 C7             3.8814    -0.3614     0.0212 C.ar    
   8 C8             5.0298     0.3552    -0.0690 C.ar    
   9 C9             5.0069     1.7637    -0.0617 C.ar    
  10 C10            3.7986     2.4351     0.0377 C.ar    
  11 C11            3.9333    -1.8675     0.0122 C.3     
  12 C12            6.0882     2.7652    -0.1449 C.2     
  13 N13            5.5783     4.0079    -0.0991 N.am    
  14 C14            4.1189     3.9086     0.0178 C.3     
  15 O15            7.2714     2.5032    -0.2408 O.2     
  16 C16            6.3495     5.2521    -0.1564 C.3     
  17 C17            7.1277     5.3096    -1.4724 C.3     
  18 C18            7.9332     6.6090    -1.5323 C.3     
  19 C19            8.9129     6.6563    -0.3580 C.3     
  20 C20            8.1347     6.5989     0.9580 C.3     
  21 C21            7.3292     5.2994     1.0179 C.3     
  22 N22            3.4481    -2.3665    -1.2815 N.3     
  23 C23            3.6502    -3.8310    -1.3958 C.3     
  24 C24            4.5247    -4.0214    -2.6737 C.3     
  25 N25            5.8718    -3.5048    -2.2746 N.3     
  26 C26            5.7054    -2.0461    -2.0665 C.3     
  27 C27            4.2126    -1.7543    -2.4136 C.3     
  28 C28            6.3228    -4.1297    -1.1065 C.ar    
  29 C29            5.9685    -5.4460    -0.8418 C.ar    
  30 C30            6.4140    -6.0621     0.3112 C.ar    
  31 C31            7.2146    -5.3662     1.2049 C.ar    
  32 C32            7.5686    -4.0512     0.9414 C.ar    
  33 C33            7.1294    -3.4358    -0.2144 C.ar    
  34 O34            6.2127     5.2654    -2.5692 O.3     
  35 C35            3.9895    -2.8257    -3.5403 C.3     
  36 O36            7.6525    -5.9734     2.3403 O.3     
  37 C37            8.4734    -5.1977     3.2157 C.3     
  38 H38           -0.7334     2.1400     0.3973 H       
  39 H39           -0.6632    -0.3162     0.3866 H       
  40 H40            1.4559    -1.5046     0.2126 H       
  41 H41            1.3154     3.4479     0.2414 H       
  42 H42            5.9750    -0.1615    -0.1470 H       
  43 H43            4.9610    -2.1965     0.1662 H       
  44 H44            3.3033    -2.2576     0.8115 H       
  45 H45            3.6411     4.3845    -0.8385 H       
  46 H46            3.7841     4.3775     0.9430 H       
  47 H47            5.6710     6.1032    -0.0980 H       
  48 H48            7.8062     4.4585    -1.5308 H       
  49 H49            8.4876     6.6499    -2.4699 H       
  50 H50            7.2547     7.4601    -1.4739 H       
  51 H51            9.5914     5.8053    -0.4164 H       
  52 H52            9.4867     7.5821    -0.4007 H       
  53 H53            8.8326     6.6326     1.7946 H       
  54 H54            7.4562     7.4499     1.0164 H       
  55 H55            6.7748     5.2585     1.9555 H       
  56 H56            8.0077     4.4484     0.9595 H       
  57 H57            4.1741    -4.2104    -0.5185 H       
  58 H58            2.6921    -4.3372    -1.5139 H       
  59 H59            4.5056    -5.0124    -3.1272 H       
  60 H60            5.9103    -1.7861    -1.0280 H       
  61 H61            6.3647    -1.4909    -2.7337 H       
  62 H62            3.9675    -0.7200    -2.6548 H       
  63 H63            5.3446    -5.9878    -1.5372 H       
  64 H64            6.1386    -7.0858     0.5173 H       
  65 H65            8.1917    -3.5100     1.6380 H       
  66 H66            7.4054    -2.4120    -0.4195 H       
  67 H67            6.6375     5.2981    -3.4373 H       
  68 H68            4.6091    -2.6398    -4.4176 H       
  69 H69            2.9372    -2.9408    -3.8003 H       
  70 H70            8.7526    -5.7997     4.0804 H       
  71 H71            9.3727    -4.8828     2.6865 H       
  72 H72            7.9209    -4.3188     3.5480 H       
@<TRIPOS>BOND
   1    1    2 ar
   2    1    6 ar
   3    1   38 1
   4    2    3 ar
   5    2   39 1
   6    3    4 ar
   7    3   40 1
   8    4    5 ar
   9    4    7 ar
  10    5    6 ar
  11    5   10 ar
  12    6   41 1
  13    7    8 ar
  14    7   11 1
  15    8    9 ar
  16    8   42 1
  17    9   10 ar
  18    9   12 1
  19   10   14 1
  20   11   22 1
  21   11   43 1
  22   11   44 1
  23   12   13 am
  24   12   15 2
  25   13   14 1
  26   13   16 1
  27   14   45 1
  28   14   46 1
  29   16   17 1
  30   16   21 1
  31   16   47 1
  32   17   18 1
  33   17   34 1
  34   17   48 1
  35   18   19 1
  36   18   49 1
  37   18   50 1
  38   19   20 1
  39   19   51 1
  40   19   52 1
  41   20   21 1
  42   20   53 1
  43   20   54 1
  44   21   55 1
  45   21   56 1
  46   22   23 1
  47   22   27 1
  48   23   24 1
  49   23   57 1
  50   23   58 1
  51   24   25 1
  52   24   35 1
  53   24   59 1
  54   25   26 1
  55   25   28 1
  56   26   27 1
  57   26   60 1
  58   26   61 1
  59   27   35 1
  60   27   62 1
  61   28   29 ar
  62   28   33 ar
  63   29   30 ar
  64   29   63 1
  65   30   31 ar
  66   30   64 1
  67   31   36 1
  68   31   32 ar
  69   32   33 ar
  70   32   65 1
  71   33   66 1
  72   34   67 1
  73   35   68 1
  74   35   69 1
  75   36   37 1
  76   37   70 1
  77   37   71 1
  78   37   72 1

#	End of record

