#	Name: ASD03091931
#	Creating user name:	WinNT
#	Creation time:	15. 06. 2019 20:31

#	Modifying user name:	WinNT
#	Modification time:	15. 06. 2019 20:31

#	Program:	/corina/corina34_cracker 3.40 0067  02.08.2006

@<TRIPOS>MOLECULE
ASD03091931
  36   39    0    0    0
SMALL
NO_CHARGES


@<TRIPOS>ATOM
   1 C1            -0.0168     1.3911     0.0097 C.ar    
   2 C2            -1.2517     2.0643     0.0309 C.ar    
   3 C3            -2.4517     1.3090     0.0450 C.ar    
   4 C4            -2.3943    -0.0988     0.0356 C.ar    
   5 C5            -1.1956    -0.7356     0.0149 C.ar    
   6 C6             0.0021    -0.0041     0.0020 C.ar    
   7 O7             1.1580     2.0616     0.0021 O.3     
   8 C8             2.2593     1.4603     0.6833 C.3     
   9 N9             2.4079     0.0581     0.2908 N.am    
  10 C10            1.3149    -0.6791    -0.0138 C.2     
  11 C11           -3.6697    -0.9014     0.0492 C.3     
  12 C12           -4.1812    -1.0556    -1.3599 C.ar    
  13 C13           -3.7865    -2.1351    -2.1356 C.ar    
  14 O14            1.4109    -1.8592    -0.2917 O.2     
  15 C15           -3.6842     1.9809     0.0688 C.ar    
  16 C16           -1.3193     3.4662     0.0388 C.ar    
  17 C17           -2.5334     4.0837     0.0618 C.ar    
  18 C18           -3.7121     3.3428     0.0765 C.ar    
  19 C19           -4.2819    -2.2366    -3.4262 C.ar    
  20 C20           -5.1477    -1.2643    -3.8942 C.ar    
  21 N21           -5.5015    -0.2504    -3.1270 N.ar    
  22 C22           -5.0538    -0.1259    -1.8927 C.ar    
  23 Cl23          -5.7752    -1.3788    -5.5088 Cl      
  24 H24           -1.1633    -1.8151     0.0081 H       
  25 H25            3.1729     2.0010     0.4361 H       
  26 H26            2.0899     1.5160     1.7586 H       
  27 H27            3.2902    -0.3427     0.2486 H       
  28 H28           -3.4749    -1.8858     0.4748 H       
  29 H29           -4.4169    -0.3861     0.6527 H       
  30 H30           -3.1088    -2.8790    -1.7436 H       
  31 H31           -4.6071     1.4200     0.0805 H       
  32 H32           -0.4127     4.0529     0.0271 H       
  33 H33           -2.5822     5.1626     0.0682 H       
  34 H34           -4.6626     3.8554     0.0951 H       
  35 H35           -3.9954    -3.0640    -4.0584 H       
  36 H36           -5.3694     0.7149    -1.2929 H       
@<TRIPOS>BOND
   1    1    6 ar
   2    1    7 1
   3    1    2 ar
   4    2    3 ar
   5    2   16 ar
   6    3    4 ar
   7    3   15 ar
   8    4    5 ar
   9    4   11 1
  10    5    6 ar
  11    5   24 1
  12    6   10 1
  13    7    8 1
  14    8    9 1
  15    8   25 1
  16    8   26 1
  17    9   10 am
  18    9   27 1
  19   10   14 2
  20   11   12 1
  21   11   28 1
  22   11   29 1
  23   12   13 ar
  24   12   22 ar
  25   13   19 ar
  26   13   30 1
  27   15   18 ar
  28   15   31 1
  29   16   17 ar
  30   16   32 1
  31   17   18 ar
  32   17   33 1
  33   18   34 1
  34   19   20 ar
  35   19   35 1
  36   20   21 ar
  37   20   23 1
  38   21   22 ar
  39   22   36 1

#	End of record

