#	Name: ASD01903163
#	Creating user name:	WinNT
#	Creation time:	15. 06. 2019 19:54

#	Modifying user name:	WinNT
#	Modification time:	15. 06. 2019 19:54

#	Program:	/corina/corina34_cracker 3.40 0067  02.08.2006

@<TRIPOS>MOLECULE
ASD01903163
  53   56    0    0    0
SMALL
NO_CHARGES


@<TRIPOS>ATOM
   1 C1             0.4682    -0.0855     1.0622 C.ar    
   2 C2            -0.3534     0.3689     0.0427 C.ar    
   3 C3             0.1375     1.2957    -0.8634 C.ar    
   4 N4             1.3688     1.7472    -0.7676 N.ar    
   5 C5             2.1879     1.3377     0.1936 C.ar    
   6 C6             1.7615     0.4077     1.1388 C.ar    
   7 C7             3.5669     1.8744     0.2616 C.2     
   8 N8             3.9853     2.7746    -0.6500 N.am    
   9 O9             4.3209     1.5031     1.1394 O.2     
  10 C10            5.2512     3.3561    -0.5284 C.ar    
  11 C11            6.3115     2.6157    -0.0219 C.ar    
  12 C12            7.5604     3.1930     0.0970 C.ar    
  13 C13            7.7559     4.5068    -0.2877 C.ar    
  14 C14            6.7023     5.2470    -0.7920 C.ar    
  15 C15            5.4522     4.6737    -0.9192 C.ar    
  16 S16            9.3510     5.2396    -0.1344 S.o2    
  17 O17            9.1422     6.6432    -0.0599 O.2     
  18 O18           10.0370     4.5016     0.8676 O.2     
  19 N19           10.1567     4.9614    -1.5542 N.am    
  20 C20            9.6418     5.4506    -2.7568 C.ar    
  21 C21            9.7843     4.7142    -3.9257 C.ar    
  22 C22            9.2735     5.2007    -5.1133 C.ar    
  23 C23            8.6213     6.4195    -5.1393 C.ar    
  24 C24            8.4776     7.1555    -3.9771 C.ar    
  25 C25            8.9809     6.6723    -2.7855 C.ar    
  26 S26           10.6163     3.1613    -3.8939 S.o2    
  27 O27           10.1206     2.4637    -2.7595 O.2     
  28 O28           10.5494     2.6431    -5.2154 O.2     
  29 C29           12.3178     3.4877    -3.5730 C.ar    
  30 C30           12.8232     3.3288    -2.2962 C.ar    
  31 C31           14.1581     3.5849    -2.0444 C.ar    
  32 C32           14.9877     3.9995    -3.0695 C.ar    
  33 C33           14.4825     4.1574    -4.3465 C.ar    
  34 C34           13.1486     3.8971    -4.5992 C.ar    
  35 H35            0.1076    -0.8042     1.7832 H       
  36 H36           -1.3661     0.0041    -0.0450 H       
  37 H37           -0.4999     1.6517    -1.6593 H       
  38 H38            2.4290     0.0752     1.9200 H       
  39 H39            3.4084     3.0190    -1.3905 H       
  40 H40            6.1594     1.5897     0.2791 H       
  41 H41            8.3853     2.6179     0.4911 H       
  42 H42            6.8582     6.2729    -1.0912 H       
  43 H43            4.6297     5.2523    -1.3131 H       
  44 H44           10.9863     4.4588    -1.5506 H       
  45 H45            9.3839     4.6285    -6.0226 H       
  46 H46            8.2234     6.7979    -6.0693 H       
  47 H47            7.9679     8.1073    -4.0010 H       
  48 H48            8.8681     7.2474    -1.8783 H       
  49 H49           12.1750     3.0050    -1.4953 H       
  50 H50           14.5527     3.4615    -1.0467 H       
  51 H51           16.0304     4.2002    -2.8726 H       
  52 H52           15.1305     4.4816    -5.1473 H       
  53 H53           12.7539     4.0205    -5.5969 H       
@<TRIPOS>BOND
   1    1    2 ar
   2    1    6 ar
   3    1   35 1
   4    2    3 ar
   5    2   36 1
   6    3    4 ar
   7    3   37 1
   8    4    5 ar
   9    5    6 ar
  10    5    7 1
  11    6   38 1
  12    7    8 am
  13    7    9 2
  14    8   10 1
  15    8   39 1
  16   10   11 ar
  17   10   15 ar
  18   11   12 ar
  19   11   40 1
  20   12   13 ar
  21   12   41 1
  22   13   14 ar
  23   13   16 1
  24   14   15 ar
  25   14   42 1
  26   15   43 1
  27   16   17 2
  28   16   18 2
  29   16   19 am
  30   19   20 1
  31   19   44 1
  32   20   21 ar
  33   20   25 ar
  34   21   22 ar
  35   21   26 1
  36   22   23 ar
  37   22   45 1
  38   23   24 ar
  39   23   46 1
  40   24   25 ar
  41   24   47 1
  42   25   48 1
  43   26   27 2
  44   26   28 2
  45   26   29 1
  46   29   30 ar
  47   29   34 ar
  48   30   31 ar
  49   30   49 1
  50   31   32 ar
  51   31   50 1
  52   32   33 ar
  53   32   51 1
  54   33   34 ar
  55   33   52 1
  56   34   53 1

#	End of record

