#	Name: ASD06300011
#	Creating user name:	WinNT
#	Creation time:	15. 06. 2019 21:05

#	Modifying user name:	WinNT
#	Modification time:	15. 06. 2019 21:05

#	Program:	/corina/corina34_cracker 3.40 0067  02.08.2006

@<TRIPOS>MOLECULE
ASD06300011
 284  288    0    0    0
SMALL
NO_CHARGES


@<TRIPOS>ATOM
   1 N1            -4.8985     4.3820     3.6340 N.am    
   2 C2            -1.9644   -37.4789     8.1229 C.3     
   3 C3            -3.4616   -37.4787     7.8081 C.3     
   4 C4            -4.2239   -36.9436     8.9929 C.2     
   5 N5            -3.7151   -36.6305     6.6408 N.am    
   6 O6            -4.9113   -35.9515     8.8739 O.2     
   7 O7            -1.5598   -36.1656     8.5148 O.3     
   8 C8            -3.2433   -27.4829    15.4069 C.3     
   9 C9            -4.5741   -27.7484    14.7001 C.3     
  10 C10           -4.7043   -26.8296    13.5127 C.2     
  11 N11           -4.6172   -29.1409    14.2471 N.am    
  12 O12           -4.8215   -27.2924    12.3978 O.2     
  13 N13           -1.7607   -28.8674    18.6086 N.pl3   
  14 C14           -0.6487   -28.7951    19.4139 C.2     
  15 N15           -0.5827   -29.5131    20.4997 N.2     
  16 N16            0.3935   -27.9654    19.0739 N.pl3   
  17 C17           -3.1657   -28.3258    16.6814 C.3     
  18 C18           -1.8350   -28.0603    17.3882 C.3     
  19 C19           -4.8170   -24.6004    12.5354 C.3     
  20 C20           -4.1838   -23.2712    12.8569 C.2     
  21 N21           -4.6904   -25.4936    13.6897 N.am    
  22 O22           -3.6767   -23.0880    13.9433 O.2     
  23 C23           -7.4635   -26.5538    12.7031 C.ar    
  24 C24           -8.0181   -27.7539    12.2992 C.ar    
  25 C25           -8.0111   -28.1032    10.9617 C.ar    
  26 C26           -7.4498   -27.2522    10.0281 C.ar    
  27 C27           -6.8948   -26.0523    10.4320 C.ar    
  28 C28           -6.9019   -25.7030    11.7695 C.ar    
  29 C29           -6.2977   -24.3945    12.2098 C.3     
  30 C30           -2.0635   -21.0627    11.9665 C.3     
  31 C31           -3.5655   -20.9939    12.2497 C.3     
  32 C32           -4.1891   -19.9206    11.3953 C.2     
  33 N33           -4.1810   -22.2860    11.9372 N.am    
  34 O34           -5.0619   -20.2068    10.6032 O.2     
  35 C35           -1.4098   -22.0639    12.9211 C.3     
  36 C36            0.0674   -22.2258    12.5571 C.3     
  37 C37           -1.5278   -21.5506    14.3576 C.3     
  38 C38           -5.6627   -17.0934    11.3503 C.3     
  39 C39           -4.3834   -17.5992    10.6807 C.3     
  40 C40           -3.4137   -16.4565    10.5223 C.2     
  41 N41           -3.7771   -18.6426    11.5113 N.am    
  42 O42           -2.3236   -16.5086    11.0512 O.2     
  43 C43           -6.6939   -18.2227    11.3984 C.3     
  44 C44           -7.9540   -17.7245    12.0580 C.2     
  45 O45           -8.0207   -16.5790    12.4509 O.2     
  46 N46           -9.0068   -18.5519    12.2112 N.am    
  47 C47           -1.8622   -14.5628     8.4796 C.3     
  48 C48           -2.8154   -14.2659     9.6390 C.3     
  49 C49           -3.5765   -12.9974     9.3514 C.2     
  50 N50           -3.7580   -15.3767     9.7930 N.am    
  51 O51           -4.7871   -13.0191     9.2818 O.2     
  52 C52           -4.1033    -9.9720    10.2092 C.3     
  53 C53           -3.6517   -10.6057     8.8919 C.3     
  54 C54           -2.7609    -9.6424     8.1505 C.2     
  55 N55           -2.9118   -11.8388     9.1715 N.am    
  56 O56           -1.6202    -9.9552     7.8822 O.2     
  57 C57           -5.1055   -10.8969    10.9029 C.3     
  58 C58           -5.5571   -10.2633    12.2202 C.3     
  59 C59           -6.5593   -11.1882    12.9139 C.3     
  60 N60           -6.9928   -10.5798    14.1787 N.3     
  61 C61           -2.4157    -7.8055     5.5674 C.3     
  62 C62           -2.3657    -7.4970     7.0651 C.3     
  63 C63           -2.8416    -6.0872     7.3038 C.2     
  64 N64           -3.2317    -8.4334     7.7858 N.am    
  65 O65           -3.8090    -5.8846     8.0067 O.2     
  66 C66           -1.8255    -9.1690     5.3153 C.2     
  67 C67           -0.5576    -9.4383     4.9664 C.2     
  68 N68           -0.3895   -10.7888     4.8249 N.pl3   
  69 C69           -1.5753   -11.4380     5.0861 C.ar    
  70 C70           -2.5251   -10.4525     5.4108 C.ar    
  71 C71           -1.9543   -12.7766     5.0873 C.ar    
  72 C72           -3.2513   -13.1201     5.3990 C.ar    
  73 C73           -4.1866   -12.1433     5.7127 C.ar    
  74 C74           -3.8324   -10.8238     5.7314 C.ar    
  75 C75           -2.1500    -3.0549     8.1480 C.3     
  76 C76           -2.7177    -3.6913     6.8777 C.3     
  77 C77           -2.3138    -2.8698     5.6806 C.2     
  78 N78           -2.1923    -5.0516     6.7362 N.am    
  79 O79           -1.4276    -3.2584     4.9494 O.2     
  80 C80           -2.8175    -1.6980     8.3807 C.3     
  81 C81           -4.2947    -1.9076     8.7192 C.3     
  82 C82           -2.1249    -0.9814     9.5416 C.3     
  83 C83           -3.1263    -1.3219     3.0141 C.3     
  84 C84           -2.4783    -0.8556     4.3193 C.3     
  85 C85           -2.8667     0.5751     4.5898 C.2     
  86 N86           -2.9374    -1.7032     5.4225 N.am    
  87 O87           -3.4679     0.8589     5.6042 O.2     
  88 C88           -2.6336    -2.7301     2.6747 C.3     
  89 C89           -3.2719    -3.1894     1.3892 C.2     
  90 O90           -4.0419    -2.4648     0.8044 O.2     
  91 O91           -2.9850    -4.4035     0.8938 O.3     
  92 C92           -1.9720     3.8670     3.2206 C.3     
  93 C93           -2.9237     2.9303     3.9674 C.3     
  94 C94           -4.3348     3.1658     3.4939 C.2     
  95 N95           -2.5461     1.5394     3.7044 N.am    
  96 O96           -4.9633     2.2610     2.9866 O.2     
  97 N97            1.7455     4.5100     3.5845 N.pl3   
  98 C98            2.7770     5.2571     3.0669 C.2     
  99 N99            2.5513     6.0932     2.0928 N.2     
 100 N100           4.0467     5.1223     3.5768 N.pl3   
 101 C101          -0.5591     3.7170     3.7880 C.3     
 102 C102           0.3925     4.6537     3.0412 C.3     
 103 C103          -4.2003   -37.4783    12.6090 C.2     
 104 N104          -4.1419   -37.5677    10.1846 N.am    
 105 C105          -4.8829   -37.0475    11.3364 C.3     
 106 C106          -6.3114   -37.5952    11.3133 C.3     
 107 C107          -7.0444   -37.0560    10.0833 C.3     
 108 C108          -8.4729   -37.6036    10.0602 C.3     
 109 C109          -9.2059   -37.0644     8.8303 C.3     
 110 O110          -3.3735   -38.3584    12.5829 O.2     
 111 O111          -3.2592   -38.2955     5.2473 O.2     
 112 C112          -3.5856   -37.1372     5.3987 C.2     
 113 C113          -3.8464   -36.2647     4.1980 C.3     
 114 C114          -3.8620   -37.2507    15.1692 C.3     
 115 C115          -4.5446   -36.8200    13.8966 C.2     
 116 N116          -4.0426   -36.2159    16.1961 N.3     
 117 O117          -5.3714   -35.9399    13.9227 O.2     
 118 C118          -4.0595   -38.7209    18.1202 C.ar    
 119 C119          -3.3401   -39.1914    19.2027 C.ar    
 120 C120          -2.2511   -40.0188    19.0020 C.ar    
 121 C121          -1.8817   -40.3761    17.7188 C.ar    
 122 C122          -2.6008   -39.9052    16.6362 C.ar    
 123 C123          -3.6899   -39.0778    16.8369 C.ar    
 124 C124          -4.4744   -38.5653    15.6567 C.3     
 125 C125          -6.0221   -31.6652    13.4382 C.3     
 126 C126          -5.0639   -31.5443    14.6248 C.3     
 127 C127          -5.0195   -30.1119    15.0908 C.2     
 128 N128          -5.5309   -32.3995    15.7188 N.am    
 129 O129          -5.3460   -29.8328    16.2250 O.2     
 130 C130          -7.4081   -31.2590    13.8684 C.2     
 131 O131          -7.5957   -30.8425    14.9870 O.2     
 132 O132          -8.4342   -31.3601    13.0090 O.3     
 133 C133          -5.7051   -34.5966    16.8417 C.3     
 134 C134          -5.1372   -33.6869    15.7830 C.2     
 135 N135          -5.4532   -35.9957    16.4716 N.3     
 136 O136          -4.3258   -34.1132    14.9887 O.2     
 137 C137          -5.2423   -36.3439    19.6089 C.ar    
 138 C138          -5.8639   -37.0713    20.6066 C.ar    
 139 C139          -6.9576   -36.5439    21.2674 C.ar    
 140 C140          -7.4294   -35.2889    20.9308 C.ar    
 141 C141          -6.8081   -34.5617    19.9328 C.ar    
 142 C142          -5.7144   -35.0891    19.2720 C.ar    
 143 C143          -5.0365   -34.2960    18.1846 C.3     
 144 H144          -4.3959     5.1057     4.0397 H       
 145 H145          -5.8054     4.5347     3.3256 H       
 146 H146          -1.7638   -38.1783     8.9345 H       
 147 H147          -1.4068   -37.7814     7.2365 H       
 148 H148          -3.7884   -38.4966     7.5954 H       
 149 H149          -3.9762   -35.7042     6.7619 H       
 150 H150          -0.6200   -36.0913     8.7298 H       
 151 H151          -2.4203   -27.7500    14.7440 H       
 152 H152          -3.1735   -26.4263    15.6652 H       
 153 H153          -5.3959   -27.5659    15.3925 H       
 154 H154          -4.3561   -29.3641    13.3399 H       
 155 H155          -2.4960   -29.4527    18.8484 H       
 156 H156           0.2019   -29.4621    21.0679 H       
 157 H157           0.3443   -27.4310    18.2659 H       
 158 H158           1.1780   -27.9144    19.6421 H       
 159 H159          -3.9888   -28.0587    17.3443 H       
 160 H160          -3.2355   -29.3824    16.4231 H       
 161 H161          -1.7652   -27.0037    17.6465 H       
 162 H162          -1.0119   -28.3274    16.7253 H       
 163 H163          -4.3142   -25.0439    11.6759 H       
 164 H164          -4.5966   -25.1234    14.5814 H       
 165 H165          -7.4730   -26.2789    13.7475 H       
 166 H166          -8.4566   -28.4188    13.0286 H       
 167 H167          -8.4437   -29.0411    10.6463 H       
 168 H168          -7.4437   -27.5254     8.9832 H       
 169 H169          -6.4560   -25.3876     9.7026 H       
 170 H170          -6.8182   -24.0343    13.0971 H       
 171 H171          -6.3951   -23.6616    11.4088 H       
 172 H172          -1.9021   -21.3833    10.9373 H       
 173 H173          -1.6205   -20.0777    12.1139 H       
 174 H174          -3.7264   -20.7598    13.3021 H       
 175 H175          -4.5865   -22.4326    11.0683 H       
 176 H176          -1.9125   -23.0274    12.8371 H       
 177 H177           0.5701   -21.2623    12.6411 H       
 178 H178           0.5331   -22.9391    13.2371 H       
 179 H179           0.1514   -22.5915    11.5337 H       
 180 H180          -1.0251   -20.5871    14.4416 H       
 181 H181          -2.5802   -21.4352    14.6169 H       
 182 H182          -1.0621   -22.2639    15.0377 H       
 183 H183          -5.4363   -16.7647    12.3646 H       
 184 H184          -6.0658   -16.2574    10.7788 H       
 185 H185          -4.6244   -18.0097     9.7001 H       
 186 H186          -3.0791   -18.4137    12.1448 H       
 187 H187          -6.9203   -18.5514    10.3841 H       
 188 H188          -6.2908   -19.0587    11.9699 H       
 189 H189          -8.9535   -19.4680    11.8970 H       
 190 H190          -9.8179   -18.2312    12.6358 H       
 191 H191          -2.4350   -14.6833     7.5601 H       
 192 H192          -1.1609   -13.7363     8.3651 H       
 193 H193          -1.3117   -15.4802     8.6876 H       
 194 H194          -2.2426   -14.1454    10.5585 H       
 195 H195          -4.6299   -15.3351     9.3699 H       
 196 H196          -3.2387    -9.8229    10.8559 H       
 197 H197          -4.5758    -9.0108    10.0069 H       
 198 H198          -4.5249   -10.8363     8.2815 H       
 199 H199          -1.9436   -11.8214     9.2271 H       
 200 H200          -5.9702   -11.0461    10.2562 H       
 201 H201          -4.6330   -11.8582    11.1052 H       
 202 H202          -4.6924   -10.1142    12.8669 H       
 203 H203          -6.0296    -9.3021    12.0179 H       
 204 H204          -7.4239   -11.3373    12.2672 H       
 205 H205          -6.0868   -12.1494    13.1162 H       
 206 H206          -7.3759    -9.6592    14.0246 H       
 207 H207          -7.6557   -11.1720    14.6563 H       
 208 H208          -3.4512    -7.7893     5.2275 H       
 209 H209          -1.8427    -7.0552     5.0225 H       
 210 H210          -1.3414    -7.6002     7.4233 H       
 211 H211          -4.1440    -8.1833     8.0004 H       
 212 H212           0.2152    -8.6984     4.8185 H       
 213 H213           0.4413   -11.2240     4.5773 H       
 214 H214          -1.2341   -13.5439     4.8443 H       
 215 H215          -3.5437   -14.1598     5.3991 H       
 216 H216          -5.1996   -12.4295     5.9545 H       
 217 H217          -4.5649   -10.0695     5.9784 H       
 218 H218          -2.3455    -3.7068     8.9995 H       
 219 H219          -1.0747    -2.9164     8.0357 H       
 220 H220          -3.8051    -3.7269     6.9438 H       
 221 H221          -1.3770    -5.2068     6.2339 H       
 222 H222          -2.7339    -1.0925     7.4782 H       
 223 H223          -4.3782    -2.4528     9.6594 H       
 224 H224          -4.7863    -0.9396     8.8156 H       
 225 H225          -4.7721    -2.4799     7.9238 H       
 226 H226          -1.0725    -0.8321     9.3004 H       
 227 H227          -2.6004    -0.0147     9.7074 H       
 228 H228          -2.2085    -1.5869    10.4440 H       
 229 H229          -4.2100    -1.3344     3.1307 H       
 230 H230          -2.8553    -0.6384     2.2094 H       
 231 H231          -1.3942    -0.9276     4.2327 H       
 232 H232          -3.6902    -1.4248     5.9672 H       
 233 H233          -1.5499    -2.7176     2.5582 H       
 234 H234          -2.9046    -3.4136     3.4794 H       
 235 H235          -3.4189    -4.6539     0.0666 H       
 236 H236          -1.9672     3.6109     2.1611 H       
 237 H237          -2.3055     4.8974     3.3438 H       
 238 H238          -2.8620     3.1274     5.0377 H       
 239 H239          -2.0653     1.3125     2.8931 H       
 240 H240           1.9134     3.8878     4.3095 H       
 241 H241           3.2791     6.6203     1.7276 H       
 242 H242           4.2146     4.5001     4.3018 H       
 243 H243           4.7745     5.6494     3.2116 H       
 244 H244          -0.5640     3.9731     4.8475 H       
 245 H245          -0.2256     2.6866     3.6649 H       
 246 H246           0.0591     5.6841     3.1644 H       
 247 H247           0.3974     4.3976     1.9817 H       
 248 H248          -3.5921   -38.3612    10.2798 H       
 249 H249          -4.9103   -35.9589    11.2893 H       
 250 H250          -6.2825   -38.6839    11.2708 H       
 251 H251          -6.8357   -37.2806    12.2157 H       
 252 H252          -7.0733   -35.9672    10.1259 H       
 253 H253          -6.5201   -37.3705     9.1810 H       
 254 H254          -8.4440   -38.6924    10.0177 H       
 255 H255          -8.9972   -37.2890    10.9626 H       
 256 H256         -10.2236   -37.4546     8.8138 H       
 257 H257          -9.2349   -35.9757     8.8728 H       
 258 H258          -8.6816   -37.3790     7.9279 H       
 259 H259          -4.1260   -35.2647     4.5293 H       
 260 H260          -2.9447   -36.2067     3.5883 H       
 261 H261          -4.6571   -36.6918     3.6077 H       
 262 H262          -2.7980   -37.3935    14.9804 H       
 263 H263          -3.5420   -36.4524    17.0397 H       
 264 H264          -4.9131   -38.0781    18.2772 H       
 265 H265          -3.6287   -38.9122    20.2053 H       
 266 H266          -1.6886   -40.3857    19.8478 H       
 267 H267          -1.0304   -41.0219    17.5619 H       
 268 H268          -2.3120   -40.1841    15.6335 H       
 269 H269          -5.5092   -38.3958    15.9542 H       
 270 H270          -4.4434   -39.3008    14.8527 H       
 271 H271          -5.6862   -31.0130    12.6320 H       
 272 H272          -6.0383   -32.6972    13.0879 H       
 273 H273          -4.0657   -31.8580    14.3192 H       
 274 H274          -6.1236   -32.0392    16.3969 H       
 275 H275          -9.3046   -31.0875    13.3304 H       
 276 H276          -6.7792   -34.4307    16.9253 H       
 277 H277          -6.0223   -36.2697    15.6848 H       
 278 H278          -4.3852   -36.7541    19.0957 H       
 279 H279          -5.4953   -38.0518    20.8696 H       
 280 H280          -7.4437   -37.1125    22.0464 H       
 281 H281          -8.2843   -34.8772    21.4466 H       
 282 H282          -7.1769   -33.5814    19.6695 H       
 283 H283          -3.9833   -34.5724    18.1361 H       
 284 H284          -5.1231   -33.2317    18.4034 H       
@<TRIPOS>BOND
   1    1   94 am
   2    1  144 1
   3    1  145 1
   4    2    7 1
   5    2    3 1
   6    2  146 1
   7    2  147 1
   8    3    5 1
   9    3    4 1
  10    3  148 1
  11    4    6 2
  12    4  104 am
  13    5  112 am
  14    5  149 1
  15    7  150 1
  16    8   17 1
  17    8    9 1
  18    8  151 1
  19    8  152 1
  20    9   11 1
  21    9   10 1
  22    9  153 1
  23   10   12 2
  24   10   21 am
  25   11  127 am
  26   11  154 1
  27   13   18 1
  28   13   14 1
  29   13  155 1
  30   14   15 2
  31   14   16 1
  32   15  156 1
  33   16  157 1
  34   16  158 1
  35   17   18 1
  36   17  159 1
  37   17  160 1
  38   18  161 1
  39   18  162 1
  40   19   20 1
  41   19   21 1
  42   19   29 1
  43   19  163 1
  44   20   22 2
  45   20   33 am
  46   21  164 1
  47   23   24 ar
  48   23   28 ar
  49   23  165 1
  50   24   25 ar
  51   24  166 1
  52   25   26 ar
  53   25  167 1
  54   26   27 ar
  55   26  168 1
  56   27   28 ar
  57   27  169 1
  58   28   29 1
  59   29  170 1
  60   29  171 1
  61   30   35 1
  62   30   31 1
  63   30  172 1
  64   30  173 1
  65   31   33 1
  66   31   32 1
  67   31  174 1
  68   32   34 2
  69   32   41 am
  70   33  175 1
  71   35   36 1
  72   35   37 1
  73   35  176 1
  74   36  177 1
  75   36  178 1
  76   36  179 1
  77   37  180 1
  78   37  181 1
  79   37  182 1
  80   38   43 1
  81   38   39 1
  82   38  183 1
  83   38  184 1
  84   39   41 1
  85   39   40 1
  86   39  185 1
  87   40   42 2
  88   40   50 am
  89   41  186 1
  90   43   44 1
  91   43  187 1
  92   43  188 1
  93   44   45 2
  94   44   46 am
  95   46  189 1
  96   46  190 1
  97   47   48 1
  98   47  191 1
  99   47  192 1
 100   47  193 1
 101   48   49 1
 102   48   50 1
 103   48  194 1
 104   49   51 2
 105   49   55 am
 106   50  195 1
 107   52   57 1
 108   52   53 1
 109   52  196 1
 110   52  197 1
 111   53   55 1
 112   53   54 1
 113   53  198 1
 114   54   56 2
 115   54   64 am
 116   55  199 1
 117   57   58 1
 118   57  200 1
 119   57  201 1
 120   58   59 1
 121   58  202 1
 122   58  203 1
 123   59   60 1
 124   59  204 1
 125   59  205 1
 126   60  206 1
 127   60  207 1
 128   61   66 1
 129   61   62 1
 130   61  208 1
 131   61  209 1
 132   62   63 1
 133   62   64 1
 134   62  210 1
 135   63   65 2
 136   63   78 am
 137   64  211 1
 138   66   67 2
 139   66   70 1
 140   67   68 1
 141   67  212 1
 142   68   69 1
 143   68  213 1
 144   69   70 ar
 145   69   71 ar
 146   70   74 ar
 147   71   72 ar
 148   71  214 1
 149   72   73 ar
 150   72  215 1
 151   73   74 ar
 152   73  216 1
 153   74  217 1
 154   75   80 1
 155   75   76 1
 156   75  218 1
 157   75  219 1
 158   76   78 1
 159   76   77 1
 160   76  220 1
 161   77   79 2
 162   77   86 am
 163   78  221 1
 164   80   81 1
 165   80   82 1
 166   80  222 1
 167   81  223 1
 168   81  224 1
 169   81  225 1
 170   82  226 1
 171   82  227 1
 172   82  228 1
 173   83   88 1
 174   83   84 1
 175   83  229 1
 176   83  230 1
 177   84   86 1
 178   84   85 1
 179   84  231 1
 180   85   87 2
 181   85   95 am
 182   86  232 1
 183   88   89 1
 184   88  233 1
 185   88  234 1
 186   89   90 2
 187   89   91 1
 188   91  235 1
 189   92  101 1
 190   92   93 1
 191   92  236 1
 192   92  237 1
 193   93   95 1
 194   93   94 1
 195   93  238 1
 196   94   96 2
 197   95  239 1
 198   97  102 1
 199   97   98 1
 200   97  240 1
 201   98   99 2
 202   98  100 1
 203   99  241 1
 204  100  242 1
 205  100  243 1
 206  101  102 1
 207  101  244 1
 208  101  245 1
 209  102  246 1
 210  102  247 1
 211  103  110 2
 212  103  105 1
 213  103  115 1
 214  104  105 1
 215  104  248 1
 216  105  106 1
 217  105  249 1
 218  106  107 1
 219  106  250 1
 220  106  251 1
 221  107  108 1
 222  107  252 1
 223  107  253 1
 224  108  109 1
 225  108  254 1
 226  108  255 1
 227  109  256 1
 228  109  257 1
 229  109  258 1
 230  111  112 2
 231  112  113 1
 232  113  259 1
 233  113  260 1
 234  113  261 1
 235  114  115 1
 236  114  116 1
 237  114  124 1
 238  114  262 1
 239  115  117 2
 240  116  135 1
 241  116  263 1
 242  118  119 ar
 243  118  123 ar
 244  118  264 1
 245  119  120 ar
 246  119  265 1
 247  120  121 ar
 248  120  266 1
 249  121  122 ar
 250  121  267 1
 251  122  123 ar
 252  122  268 1
 253  123  124 1
 254  124  269 1
 255  124  270 1
 256  125  130 1
 257  125  126 1
 258  125  271 1
 259  125  272 1
 260  126  127 1
 261  126  128 1
 262  126  273 1
 263  127  129 2
 264  128  134 am
 265  128  274 1
 266  130  131 2
 267  130  132 1
 268  132  275 1
 269  133  134 1
 270  133  135 1
 271  133  143 1
 272  133  276 1
 273  134  136 2
 274  135  277 1
 275  137  138 ar
 276  137  142 ar
 277  137  278 1
 278  138  139 ar
 279  138  279 1
 280  139  140 ar
 281  139  280 1
 282  140  141 ar
 283  140  281 1
 284  141  142 ar
 285  141  282 1
 286  142  143 1
 287  143  283 1
 288  143  284 1

#	End of record

