#	Name: ASD01870240
#	Creating user name:	WinNT
#	Creation time:	15. 06. 2019 19:38

#	Modifying user name:	WinNT
#	Modification time:	15. 06. 2019 19:38

#	Program:	/corina/corina34_cracker 3.40 0067  02.08.2006

@<TRIPOS>MOLECULE
ASD01870240
  35   38    0    0    0
SMALL
NO_CHARGES


@<TRIPOS>ATOM
   1 C1             0.0603     1.3970     0.3672 C.ar    
   2 N2             0.2021     0.2093     0.9258 N.ar    
   3 N3             1.0159     1.9453    -0.3726 N.ar    
   4 C4             2.1619     1.3156    -0.5820 C.ar    
   5 C5             2.3605     0.0351    -0.0013 C.ar    
   6 C6             1.3297    -0.4994     0.7669 C.ar    
   7 C7             3.5244    -0.8478    -0.0863 C.2     
   8 C8             3.3568    -2.0258     0.6129 C.2     
   9 S9             1.7814    -2.0790     1.3849 S.3     
  10 N10            4.6952    -0.6394    -0.7490 N.2     
  11 C11            5.6513    -1.5163    -0.7390 C.2     
  12 N12            5.5396    -2.6928    -0.0675 N.am    
  13 C13            4.4114    -2.9750     0.6138 C.2     
  14 N14           -1.1224     2.0885     0.5540 N.pl3   
  15 N15            3.1492     1.8956    -1.3540 N.pl3   
  16 O16            4.2993    -4.0274     1.2207 O.2     
  17 C17            6.5963    -3.6118    -0.0840 C.ar    
  18 C18            7.5837    -3.5543     0.8907 C.ar    
  19 C19            8.6245    -4.4619     0.8717 C.ar    
  20 C20            8.6842    -5.4271    -0.1168 C.ar    
  21 C21            7.7027    -5.4867    -1.0891 C.ar    
  22 C22            6.6558    -4.5861    -1.0717 C.ar    
  23 C23            9.8215    -6.4156    -0.1349 C.3     
  24 H24            6.5620    -1.3056    -1.2800 H       
  25 H25           -1.8322     1.6998     1.0888 H       
  26 H26           -1.2423     2.9623     0.1503 H       
  27 H27            3.0059     2.7705    -1.7475 H       
  28 H28            3.9859     1.4280    -1.5027 H       
  29 H29            7.5380    -2.8003     1.6626 H       
  30 H30            9.3928    -4.4177     1.6295 H       
  31 H31            7.7523    -6.2414    -1.8601 H       
  32 H32            5.8895    -4.6331    -1.8314 H       
  33 H33            9.5496    -7.2931     0.4518 H       
  34 H34           10.0264    -6.7150    -1.1627 H       
  35 H35           10.7112    -5.9537     0.2932 H       
@<TRIPOS>BOND
   1    1    2 ar
   2    1    3 ar
   3    1   14 1
   4    2    6 ar
   5    3    4 ar
   6    4    5 ar
   7    4   15 1
   8    5    6 ar
   9    5    7 1
  10    6    9 1
  11    7    8 2
  12    7   10 1
  13    8    9 1
  14    8   13 1
  15   10   11 2
  16   11   12 1
  17   11   24 1
  18   12   13 am
  19   12   17 1
  20   13   16 2
  21   14   25 1
  22   14   26 1
  23   15   27 1
  24   15   28 1
  25   17   18 ar
  26   17   22 ar
  27   18   19 ar
  28   18   29 1
  29   19   20 ar
  30   19   30 1
  31   20   21 ar
  32   20   23 1
  33   21   22 ar
  34   21   31 1
  35   22   32 1
  36   23   33 1
  37   23   34 1
  38   23   35 1

#	End of record

