#	Name: ASD03330761
#	Creating user name:	WinNT
#	Creation time:	15. 06. 2019 20:37

#	Modifying user name:	WinNT
#	Modification time:	15. 06. 2019 20:37

#	Program:	/corina/corina34_cracker 3.40 0067  02.08.2006

@<TRIPOS>MOLECULE
ASD03330761
  66   68    0    0    0
SMALL
NO_CHARGES


@<TRIPOS>ATOM
   1 C1            -1.5636     3.8064    -0.1950 C.2     
   2 N2            -1.9499     2.5496     0.1506 N.pl3   
   3 C3            -0.2216     3.8867     0.0224 C.2     
   4 N4             0.1950     2.6846     0.4772 N.2     
   5 C5            -0.8346     1.8741     0.5518 C.2     
   6 C6            -0.7928     0.4643     0.9970 C.ar    
   7 C7             0.6249     5.0723    -0.1996 C.2     
   8 O8             0.1308     6.1031    -0.6150 O.2     
   9 C9             2.8055     6.1579    -0.2601 C.3     
  10 N10            1.9465     5.0145     0.0579 N.am    
  11 C11            3.2509     6.0704    -1.7212 C.3     
  12 C12            4.0168     6.1408     0.6362 C.2     
  13 O13            4.1325     5.2803     1.4830 O.2     
  14 C14           -3.3233     2.0402     0.1059 C.3     
  15 C15           -3.9557     2.4180    -1.2372 C.3     
  16 C16           -4.5925     3.8004    -1.1368 C.3     
  17 N17           -3.8305     4.6674    -0.2358 N.3     
  18 C18           -2.4646     4.8871    -0.7340 C.3     
  19 C19           -1.7301    -0.0085     1.9161 C.ar    
  20 C20            0.1819    -0.4016     0.4948 C.ar    
  21 C21            0.2140    -1.7182     0.9156 C.ar    
  22 C22           -0.7155    -2.1768     1.8306 C.ar    
  23 C23           -1.6863    -1.3245     2.3271 C.ar    
  24 C24           -4.5246     5.9442    -0.0219 C.3     
  25 N25            4.9716     7.0817     0.4967 N.am    
  26 C26            6.1493     7.0651     1.3680 C.3     
  27 C27            3.8769     4.6989    -1.9823 C.3     
  28 C28            5.0041     4.4532    -0.9775 C.3     
  29 C29            2.8098     3.6134    -1.8273 C.3     
  30 C30            4.4426     4.6587    -3.4033 C.3     
  31 C31           -0.6752    -3.6132     2.2848 C.3     
  32 F32            1.0900     0.0462    -0.3996 F       
  33 F33            0.1444    -3.7227     3.4132 F       
  34 F34           -1.9693    -4.0374     2.6054 F       
  35 F35           -0.1635    -4.4130     1.2573 F       
  36 H36            2.2511     7.0833    -0.1041 H       
  37 H37            2.3291     4.2158     0.4537 H       
  38 H38            2.3877     6.2058    -2.3729 H       
  39 H39            3.9854     6.8497    -1.9245 H       
  40 H40           -3.3132     0.9554     0.2115 H       
  41 H41           -3.9019     2.4809     0.9178 H       
  42 H42           -3.1868     2.4284    -2.0097 H       
  43 H43           -4.7196     1.6852    -1.4971 H       
  44 H44           -4.6229     4.2531    -2.1279 H       
  45 H45           -5.6101     3.6989    -0.7596 H       
  46 H46           -2.1067     5.8607    -0.3991 H       
  47 H47           -2.4640     4.8524    -1.8235 H       
  48 H48           -2.4884     0.6548     2.3052 H       
  49 H49            0.9662    -2.3896     0.5287 H       
  50 H50           -2.4091    -1.6897     3.0416 H       
  51 H51           -5.5036     5.7562     0.4190 H       
  52 H52           -3.9370     6.5689     0.6509 H       
  53 H53           -4.6483     6.4550    -0.9768 H       
  54 H54            4.8791     7.7699    -0.1806 H       
  55 H55            6.8051     7.8961     1.1084 H       
  56 H56            5.8339     7.1619     2.4069 H       
  57 H57            6.6849     6.1249     1.2370 H       
  58 H58            4.5770     4.2029    -0.0064 H       
  59 H59            5.6265     3.6283    -1.3242 H       
  60 H60            5.6119     5.3534    -0.8859 H       
  61 H61            1.8707     3.9633    -2.2559 H       
  62 H62            3.1320     2.7106    -2.3462 H       
  63 H63            2.6667     3.3931    -0.7695 H       
  64 H64            5.2028     5.4321    -3.5138 H       
  65 H65            4.8886     3.6817    -3.5893 H       
  66 H66            3.6395     4.8338    -4.1192 H       
@<TRIPOS>BOND
   1    1    2 1
   2    1    3 2
   3    1   18 1
   4    2   14 1
   5    2    5 1
   6    3    4 1
   7    3    7 1
   8    4    5 2
   9    5    6 1
  10    6   20 ar
  11    6   19 ar
  12    7    8 2
  13    7   10 am
  14    9   10 1
  15    9   11 1
  16    9   12 1
  17    9   36 1
  18   10   37 1
  19   11   27 1
  20   11   38 1
  21   11   39 1
  22   12   13 2
  23   12   25 am
  24   14   15 1
  25   14   40 1
  26   14   41 1
  27   15   16 1
  28   15   42 1
  29   15   43 1
  30   16   17 1
  31   16   44 1
  32   16   45 1
  33   17   18 1
  34   17   24 1
  35   18   46 1
  36   18   47 1
  37   19   23 ar
  38   19   48 1
  39   20   21 ar
  40   20   32 1
  41   21   22 ar
  42   21   49 1
  43   22   23 ar
  44   22   31 1
  45   23   50 1
  46   24   51 1
  47   24   52 1
  48   24   53 1
  49   25   26 1
  50   25   54 1
  51   26   55 1
  52   26   56 1
  53   26   57 1
  54   27   29 1
  55   27   30 1
  56   27   28 1
  57   28   58 1
  58   28   59 1
  59   28   60 1
  60   29   61 1
  61   29   62 1
  62   29   63 1
  63   30   64 1
  64   30   65 1
  65   30   66 1
  66   31   33 1
  67   31   34 1
  68   31   35 1

#	End of record

