#	Name: ASD07300620
#	Creating user name:	WinNT
#	Creation time:	15. 06. 2019 21:10

#	Modifying user name:	WinNT
#	Modification time:	15. 06. 2019 21:10

#	Program:	/corina/corina34_cracker 3.40 0067  02.08.2006

@<TRIPOS>MOLECULE
ASD07300620
  49   52    0    0    0
SMALL
NO_CHARGES


@<TRIPOS>ATOM
   1 C1            -0.0173     1.4133    -0.0101 C.2     
   2 C2             0.0021    -0.0041     0.0020 C.2     
   3 N3             1.1773     2.0869    -0.0173 N.pl3   
   4 N4             1.1570    -0.6390     0.0061 N.2     
   5 C5             2.3155     0.0276    -0.0010 C.2     
   6 C6             2.3478     1.3755    -0.0130 C.2     
   7 N7            -0.9989     2.3008    -0.0112 N.2     
   8 C8            -0.4887     3.5283    -0.0246 C.2     
   9 C9             0.8861     3.4240    -0.0279 C.2     
  10 N10           -1.1861    -0.7177     0.0100 N.pl3   
  11 C11           -1.1895    -2.1845    -0.1073 C.3     
  12 C12           -2.0522    -2.7579     1.0227 C.3     
  13 O13           -3.3301    -2.1170     1.0109 O.3     
  14 C14           -3.2811    -0.7092     1.2547 C.3     
  15 C15           -2.4810    -0.0314     0.1422 C.3     
  16 C16           -1.2771     4.8126    -0.0307 C.3     
  17 C17            2.9646     4.5231     0.8104 C.ar    
  18 C18            1.8561     4.5388    -0.0384 C.ar    
  19 C19            1.6791     5.6276    -0.8998 C.ar    
  20 C20            2.6179     6.6468    -0.8708 C.ar    
  21 C21            3.6903     6.5551     0.0016 C.ar    
  22 N22            3.8298     5.5155     0.8017 N.ar    
  23 C23            4.7142     7.6604     0.0367 C.3     
  24 C24            4.2929     8.7133     1.0637 C.3     
  25 O25            5.2638     9.7614     1.0970 O.3     
  26 C26            4.9639    10.8021     2.0292 C.3     
  27 F27            2.4889     7.7176    -1.6845 F       
  28 H28            3.2438    -0.5242     0.0026 H       
  29 H29            3.2954     1.8936    -0.0184 H       
  30 H30           -1.6072    -2.4747    -1.0714 H       
  31 H31           -0.1709    -2.5622    -0.0194 H       
  32 H32           -2.1812    -3.8300     0.8742 H       
  33 H33           -1.5637    -2.5785     1.9805 H       
  34 H34           -4.2941    -0.3074     1.2730 H       
  35 H35           -2.7971    -0.5223     2.2133 H       
  36 H36           -2.3172     1.0161     0.3953 H       
  37 H37           -3.0310    -0.1011    -0.7963 H       
  38 H38           -1.4605     5.1311     0.9954 H       
  39 H39           -0.7120     5.5833    -0.5549 H       
  40 H40           -2.2289     4.6522    -0.5371 H       
  41 H41            3.1113     3.6914     1.4835 H       
  42 H42            0.8333     5.6723    -1.5699 H       
  43 H43            5.6841     7.2485     0.3155 H       
  44 H44            4.7849     8.1216    -0.9484 H       
  45 H45            3.3230     9.1252     0.7849 H       
  46 H46            4.2222     8.2521     2.0488 H       
  47 H47            4.0079    11.2573     1.7704 H       
  48 H48            4.9071    10.3842     3.0343 H       
  49 H49            5.7479    11.5585     1.9940 H       
@<TRIPOS>BOND
   1    1    2 1
   2    1    3 1
   3    1    7 2
   4    2    4 2
   5    2   10 1
   6    3    6 1
   7    3    9 1
   8    4    5 1
   9    5    6 2
  10    5   28 1
  11    6   29 1
  12    7    8 1
  13    8    9 2
  14    8   16 1
  15    9   18 1
  16   10   11 1
  17   10   15 1
  18   11   12 1
  19   11   30 1
  20   11   31 1
  21   12   13 1
  22   12   32 1
  23   12   33 1
  24   13   14 1
  25   14   15 1
  26   14   34 1
  27   14   35 1
  28   15   36 1
  29   15   37 1
  30   16   38 1
  31   16   39 1
  32   16   40 1
  33   17   18 ar
  34   17   22 ar
  35   17   41 1
  36   18   19 ar
  37   19   20 ar
  38   19   42 1
  39   20   21 ar
  40   20   27 1
  41   21   22 ar
  42   21   23 1
  43   23   24 1
  44   23   43 1
  45   23   44 1
  46   24   25 1
  47   24   45 1
  48   24   46 1
  49   25   26 1
  50   26   47 1
  51   26   48 1
  52   26   49 1

#	End of record

