#	Name: ASD01190091
#	Creating user name:	WinNT
#	Creation time:	15. 06. 2019 19:07

#	Modifying user name:	WinNT
#	Modification time:	15. 06. 2019 19:07

#	Program:	/corina/corina34_cracker 3.40 0067  02.08.2006

@<TRIPOS>MOLECULE
ASD01190091
  65   70    0    0    0
SMALL
NO_CHARGES


@<TRIPOS>ATOM
   1 C1             0.0332     1.6388    -0.0041 C.3     
   2 C2            -0.4720     1.8832     1.4192 C.3     
   3 N3             1.3528    -3.8021    -0.5191 N.pl3   
   4 N4             0.0656    -4.3443    -0.4445 N.2     
   5 C5            -0.8129    -3.3933    -0.2974 C.2     
   6 C6            -0.0953    -2.1228    -0.2683 C.ar    
   7 C7            -0.4886    -0.7864    -0.1360 C.ar    
   8 C8             0.4555     0.1992    -0.1470 C.ar    
   9 C9             1.8022    -0.1121    -0.2890 C.ar    
  10 C10            2.2105    -1.4093    -0.4201 C.ar    
  11 C11            1.2703    -2.4360    -0.4121 C.ar    
  12 C12            2.5365    -4.5357    -0.6721 C.ar    
  13 C13            2.6634    -5.7832    -0.0755 C.ar    
  14 C14            3.8311    -6.5047    -0.2276 C.ar    
  15 C15            4.8750    -5.9849    -0.9745 C.ar    
  16 C16            4.7505    -4.7410    -1.5703 C.ar    
  17 C17            3.5823    -4.0188    -1.4254 C.ar    
  18 F18            6.0167    -6.6921    -1.1217 F       
  19 F19            0.5513     1.6047     2.3316 F       
  20 F20           -0.8639     3.2197     1.5518 F       
  21 F21           -1.5653     1.0490     1.6757 F       
  22 N22           -3.0272     2.5388    -1.8445 N.pl3   
  23 C23           -2.3019     2.3794    -0.6932 C.2     
  24 C24           -1.0691     1.9388    -0.9869 C.2     
  25 C25           -0.9976     1.8046    -2.4447 C.ar    
  26 C26            0.0015     1.3986    -3.3322 C.ar    
  27 C27           -0.2472     1.3818    -4.6745 C.ar    
  28 C28           -1.4933     1.7676    -5.1674 C.ar    
  29 C29           -2.4955     2.1729    -4.3034 C.ar    
  30 C30           -2.2574     2.1954    -2.9334 C.ar    
  31 N31           -1.7318     1.7451    -6.5447 N.3     
  32 C32           -2.6045     2.8630    -6.9481 C.3     
  33 C33           -1.8473     3.6687    -8.0246 C.3     
  34 C34           -0.8278     2.6392    -8.5790 C.3     
  35 C35           -0.4662     1.8386    -7.3031 C.3     
  36 C36           -4.4164     2.9997    -1.9073 C.3     
  37 C37           -5.3391     1.8091    -1.9544 C.2     
  38 C38           -6.2968     1.6873    -1.0690 C.2     
  39 O39            1.1500     2.4909    -0.2661 O.3     
  40 H40           -1.8818    -3.5223    -0.2124 H       
  41 H41           -1.5335    -0.5362    -0.0261 H       
  42 H42            2.5352     0.6810    -0.2961 H       
  43 H43            3.2603    -1.6378    -0.5301 H       
  44 H44            1.8496    -6.1888     0.5074 H       
  45 H45            3.9303    -7.4748     0.2366 H       
  46 H46            5.5659    -4.3372    -2.1521 H       
  47 H47            3.4838    -3.0508    -1.8942 H       
  48 H48           -2.6682     2.5789     0.3030 H       
  49 H49            0.9690     1.0988    -2.9574 H       
  50 H50            0.5266     1.0679    -5.3594 H       
  51 H51           -3.4583     2.4708    -4.6915 H       
  52 H52           -3.5358     2.4758    -7.3614 H       
  53 H53           -2.8141     3.4989    -6.0879 H       
  54 H54           -2.5281     3.9980    -8.8095 H       
  55 H55           -1.3321     4.5192    -7.5780 H       
  56 H56           -1.2909     1.9947    -9.3262 H       
  57 H57            0.0499     3.1400    -8.9876 H       
  58 H58            0.2863     2.3712    -6.7215 H       
  59 H59           -0.1082     0.8437    -7.5681 H       
  60 H60           -4.6408     3.5986    -1.0247 H       
  61 H61           -4.5583     3.6050    -2.8027 H       
  62 H62           -5.2107     1.0564    -2.7181 H       
  63 H63           -6.9580     0.8340    -1.1027 H       
  64 H64           -6.4251     2.4400    -0.3052 H       
  65 H65            1.5227     2.3895    -1.1526 H       
@<TRIPOS>BOND
   1    1    2 1
   2    1    8 1
   3    1   24 1
   4    1   39 1
   5    2   19 1
   6    2   20 1
   7    2   21 1
   8    3    4 1
   9    3   11 1
  10    3   12 1
  11    4    5 2
  12    5    6 1
  13    5   40 1
  14    6    7 ar
  15    6   11 ar
  16    7    8 ar
  17    7   41 1
  18    8    9 ar
  19    9   10 ar
  20    9   42 1
  21   10   11 ar
  22   10   43 1
  23   12   13 ar
  24   12   17 ar
  25   13   14 ar
  26   13   44 1
  27   14   15 ar
  28   14   45 1
  29   15   16 ar
  30   15   18 1
  31   16   17 ar
  32   16   46 1
  33   17   47 1
  34   22   23 1
  35   22   30 1
  36   22   36 1
  37   23   24 2
  38   23   48 1
  39   24   25 1
  40   25   26 ar
  41   25   30 ar
  42   26   27 ar
  43   26   49 1
  44   27   28 ar
  45   27   50 1
  46   28   29 ar
  47   28   31 1
  48   29   30 ar
  49   29   51 1
  50   31   32 1
  51   31   35 1
  52   32   33 1
  53   32   52 1
  54   32   53 1
  55   33   34 1
  56   33   54 1
  57   33   55 1
  58   34   35 1
  59   34   56 1
  60   34   57 1
  61   35   58 1
  62   35   59 1
  63   36   37 1
  64   36   60 1
  65   36   61 1
  66   37   38 2
  67   37   62 1
  68   38   63 1
  69   38   64 1
  70   39   65 1

#	End of record

