#	Name: ASD04590789
#	Creating user name:	WinNT
#	Creation time:	15. 06. 2019 20:51

#	Modifying user name:	WinNT
#	Modification time:	15. 06. 2019 20:51

#	Program:	/corina/corina34_cracker 3.40 0067  02.08.2006

@<TRIPOS>MOLECULE
ASD04590789
  66   72    0    0    0
SMALL
NO_CHARGES


@<TRIPOS>ATOM
   1 C1            -2.4137     1.2385     0.0273 C.ar    
   2 N2            -2.3431    -0.0827     0.0124 N.ar    
   3 C3            -3.4496    -0.8200     0.0257 C.ar    
   4 C4            -4.6953    -0.1613     0.0559 C.ar    
   5 C5            -4.7193     1.2297     0.0703 C.ar    
   6 N6            -3.5711     1.8866     0.0557 N.ar    
   7 N7            -3.6750    -2.1742     0.0156 N.pl3   
   8 C8            -5.7213    -1.2118     0.0639 C.ar    
   9 C9            -5.0336    -2.4386     0.0381 C.ar    
  10 C10           -5.7745    -3.6128     0.0391 C.ar    
  11 C11           -7.1150    -1.2245     0.0894 C.ar    
  12 C12           -7.7673    -2.4397     0.0883 C.ar    
  13 N13           -7.0914    -3.5745     0.0637 N.ar    
  14 N14           -1.2380     1.9706     0.0185 N.pl3   
  15 C15           -1.2831     3.3617    -0.0790 C.ar    
  16 C16           -0.1086     4.1084     0.0241 C.ar    
  17 C17           -0.2036     5.4849    -0.0794 C.ar    
  18 C18           -1.4682     6.0404    -0.2805 C.ar    
  19 N19           -2.5275     5.2523    -0.3659 N.ar    
  20 N20           -2.4385     3.9752    -0.2749 N.ar    
  21 C21           -2.8003     9.9270     0.6950 C.3     
  22 C22           -3.7816    11.0950     0.9055 C.3     
  23 C23           -4.6848    11.1422    -0.3447 C.3     
  24 C24           -4.6194     9.7035    -0.9174 C.3     
  25 C25           -3.1495     9.3044    -0.6667 C.3     
  26 N26           -2.2923     9.8563    -1.7157 N.3     
  27 C27           -0.8867     9.4825    -1.4972 C.3     
  28 C28           -0.7680     7.9568    -1.4658 C.3     
  29 N29           -1.6147     7.4215    -0.3906 N.3     
  30 C30           -3.0233     7.7867    -0.6039 C.3     
  31 C31           -2.6254    -3.1958    -0.0147 C.3     
  32 C32           -1.7666    -3.0318    -1.2810 C.3     
  33 C33           -0.3258    -2.7564    -0.8036 C.3     
  34 C34           -0.2763    -3.3591     0.6224 C.3     
  35 C35           -1.6765    -3.0144     1.1879 C.3     
  36 H36           -5.6580     1.7634     0.0934 H       
  37 H37           -5.2670    -4.5660     0.0192 H       
  38 H38           -7.6735    -0.3003     0.1099 H       
  39 H39           -8.8468    -2.4639     0.1083 H       
  40 H40           -0.3832     1.5162     0.0802 H       
  41 H41            0.8453     3.6266     0.1803 H       
  42 H42            0.6738     6.1104    -0.0066 H       
  43 H43           -1.7752    10.2973     0.6849 H       
  44 H44           -2.9236     9.1879     1.4866 H       
  45 H45           -4.3853    10.9197     1.7960 H       
  46 H46           -3.2321    12.0311     1.0047 H       
  47 H47           -5.7078    11.3957    -0.0666 H       
  48 H48           -4.2968    11.8587    -1.0686 H       
  49 H49           -5.2968     9.0417    -0.3778 H       
  50 H50           -4.8437     9.7017    -1.9840 H       
  51 H51           -2.6060     9.5652    -2.6294 H       
  52 H52           -0.2747     9.8784    -2.3076 H       
  53 H53           -0.5442     9.8937    -0.5476 H       
  54 H54           -1.0931     7.5474    -2.4222 H       
  55 H55            0.2697     7.6768    -1.2846 H       
  56 H56           -3.6264     7.4056     0.2202 H       
  57 H57           -3.3731     7.3538    -1.5411 H       
  58 H58           -3.0717    -4.1900     0.0075 H       
  59 H59           -1.7955    -3.9467    -1.8728 H       
  60 H60           -2.1308    -2.1921    -1.8729 H       
  61 H61            0.3933    -3.2549    -1.4536 H       
  62 H62           -0.1330    -1.6840    -0.7714 H       
  63 H63           -0.1317    -4.4386     0.5806 H       
  64 H64            0.5068    -2.8859     1.2148 H       
  65 H65           -1.7018    -1.9837     1.5417 H       
  66 H66           -1.9431    -3.7011     1.9913 H       
@<TRIPOS>BOND
   1    1    2 ar
   2    1    6 ar
   3    1   14 1
   4    2    3 ar
   5    3    4 ar
   6    3    7 1
   7    4    5 ar
   8    4    8 1
   9    5    6 ar
  10    5   36 1
  11    7    9 1
  12    7   31 1
  13    8    9 ar
  14    8   11 ar
  15    9   10 ar
  16   10   13 ar
  17   10   37 1
  18   11   12 ar
  19   11   38 1
  20   12   13 ar
  21   12   39 1
  22   14   15 1
  23   14   40 1
  24   15   16 ar
  25   15   20 ar
  26   16   17 ar
  27   16   41 1
  28   17   18 ar
  29   17   42 1
  30   18   19 ar
  31   18   29 1
  32   19   20 ar
  33   21   22 1
  34   21   25 1
  35   21   43 1
  36   21   44 1
  37   22   23 1
  38   22   45 1
  39   22   46 1
  40   23   24 1
  41   23   47 1
  42   23   48 1
  43   24   25 1
  44   24   49 1
  45   24   50 1
  46   25   26 1
  47   25   30 1
  48   26   27 1
  49   26   51 1
  50   27   28 1
  51   27   52 1
  52   27   53 1
  53   28   29 1
  54   28   54 1
  55   28   55 1
  56   29   30 1
  57   30   56 1
  58   30   57 1
  59   31   32 1
  60   31   35 1
  61   31   58 1
  62   32   33 1
  63   32   59 1
  64   32   60 1
  65   33   34 1
  66   33   61 1
  67   33   62 1
  68   34   35 1
  69   34   63 1
  70   34   64 1
  71   35   65 1
  72   35   66 1

#	End of record

