#	Name: ASD00310252
#	Creating user name:	WinNT
#	Creation time:	15. 06. 2019 18:34

#	Modifying user name:	WinNT
#	Modification time:	15. 06. 2019 18:34

#	Program:	/corina/corina34_cracker 3.40 0067  02.08.2006

@<TRIPOS>MOLECULE
ASD00310252
  42   45    0    0    0
SMALL
NO_CHARGES


@<TRIPOS>ATOM
   1 N1            -0.0162     1.3426     0.0061 N.pl3   
   2 C2             0.0019    -0.0039    -0.0179 C.2     
   3 C3             1.3061    -0.4493    -0.0409 C.2     
   4 C4             2.1539     0.7599    -0.0293 C.ar    
   5 C5             3.5272     0.9737    -0.0418 C.ar    
   6 C6             4.0195     2.2728    -0.0249 C.ar    
   7 C7             3.1344     3.3558     0.0045 C.ar    
   8 C8             1.7743     3.1458     0.0173 C.ar    
   9 C9             1.2676     1.8488     0.0002 C.ar    
  10 C10            1.7452    -1.7964    -0.0693 C.2     
  11 O11            0.9336    -2.6993    -0.0760 O.2     
  12 C12            5.4838     2.5115    -0.0375 C.ar    
  13 C13            6.0389     3.4045    -0.9520 C.ar    
  14 C14            7.4016     3.6231    -0.9589 C.ar    
  15 C15            8.2160     2.9575    -0.0605 C.ar    
  16 C16            7.6704     2.0696     0.8491 C.ar    
  17 C17            6.3084     1.8477     0.8688 C.ar    
  18 C18            9.7033     3.2004    -0.0730 C.3     
  19 C19           10.0862     4.6843     0.0535 C.3     
  20 C20           11.2284     4.2297     0.9774 C.3     
  21 C21           10.3730     2.9920     1.2956 C.3     
  22 C22           10.4133     2.4799    -1.2209 C.3     
  23 O23           10.0219     1.1056    -1.2353 O.3     
  24 Cl24           3.7563     4.9764     0.0254 Cl      
  25 H25           -0.8217     1.8829     0.0213 H       
  26 H26           -0.8724    -0.6380    -0.0187 H       
  27 H27            4.2074     0.1352    -0.0641 H       
  28 H28            1.0989     3.9883     0.0404 H       
  29 H29            2.8017    -2.0198    -0.0851 H       
  30 H30            5.4040     3.9244    -1.6541 H       
  31 H31            7.8330     4.3147    -1.6674 H       
  32 H32            8.3110     1.5524     1.5481 H       
  33 H33            5.8829     1.1576     1.5823 H       
  34 H34           10.4306     5.1276    -0.8809 H       
  35 H35            9.3316     5.2886     0.5570 H       
  36 H36           12.1523     3.9974     0.4476 H       
  37 H37           11.3840     4.8850     1.8344 H       
  38 H38            9.6968     3.1336     2.1386 H       
  39 H39           10.9488     2.0691     1.3639 H       
  40 H40           10.1388     2.9457    -2.1673 H       
  41 H41           11.4921     2.5490    -1.0813 H       
  42 H42           10.4345     0.5865    -1.9391 H       
@<TRIPOS>BOND
   1    1    2 1
   2    1    9 1
   3    1   25 1
   4    2    3 2
   5    2   26 1
   6    3    4 1
   7    3   10 1
   8    4    5 ar
   9    4    9 ar
  10    5    6 ar
  11    5   27 1
  12    6    7 ar
  13    6   12 1
  14    7    8 ar
  15    7   24 1
  16    8    9 ar
  17    8   28 1
  18   10   11 2
  19   10   29 1
  20   12   13 ar
  21   12   17 ar
  22   13   14 ar
  23   13   30 1
  24   14   15 ar
  25   14   31 1
  26   15   16 ar
  27   15   18 1
  28   16   17 ar
  29   16   32 1
  30   17   33 1
  31   18   19 1
  32   18   21 1
  33   18   22 1
  34   19   20 1
  35   19   34 1
  36   19   35 1
  37   20   21 1
  38   20   36 1
  39   20   37 1
  40   21   38 1
  41   21   39 1
  42   22   23 1
  43   22   40 1
  44   22   41 1
  45   23   42 1

#	End of record

