#	Name: ASD03330773
#	Creating user name:	WinNT
#	Creation time:	15. 06. 2019 20:37

#	Modifying user name:	WinNT
#	Modification time:	15. 06. 2019 20:37

#	Program:	/corina/corina34_cracker 3.40 0067  02.08.2006

@<TRIPOS>MOLECULE
ASD03330773
  66   68    0    0    0
SMALL
NO_CHARGES


@<TRIPOS>ATOM
   1 C1            -1.2756     3.2015    -0.9643 C.2     
   2 N2            -1.3738     1.9006    -0.5802 N.pl3   
   3 C3             0.0488     3.5177    -0.9722 C.2     
   4 N4             0.7388     2.4125    -0.6134 N.2     
   5 C5            -0.1067     1.4355    -0.3819 C.2     
   6 C6             0.2539     0.0608     0.0265 C.ar    
   7 C7             0.6263     4.8301    -1.3114 C.2     
   8 O8            -0.1023     5.7535    -1.6207 O.2     
   9 C9             2.5433     6.2776    -1.7201 C.3     
  10 N10            1.9620     5.0073    -1.2790 N.am    
  11 C11            2.6116     6.3039    -3.2483 C.3     
  12 C12            3.9324     6.4183    -1.1527 C.2     
  13 O13            4.4380     5.4947    -0.5508 O.2     
  14 C14           -2.6253     1.1588    -0.4040 C.3     
  15 C15           -3.5292     1.4034    -1.6165 C.3     
  16 C16           -4.3712     2.6545    -1.3880 C.3     
  17 N17           -3.6324     3.6526    -0.6122 N.3     
  18 C18           -2.4284     4.1013    -1.3273 C.3     
  19 C19           -0.4144    -0.5529     1.0868 C.ar    
  20 C20            1.2612    -0.6309    -0.6514 C.ar    
  21 C21            1.5933    -1.9153    -0.2645 C.ar    
  22 C22            0.9294    -2.5156     0.7924 C.ar    
  23 C23           -0.0745    -1.8348     1.4639 C.ar    
  24 C24           -4.4928     4.7912    -0.2641 C.3     
  25 N25            4.6127     7.5705    -1.3141 N.am    
  26 C26            6.0018     7.6707    -0.8595 C.3     
  27 C27            3.4027     5.0919    -3.7444 C.3     
  28 C28            4.8660     5.2292    -3.3193 C.3     
  29 C29            2.8135     3.8159    -3.1396 C.3     
  30 C30            3.3197     5.0184    -5.2704 C.3     
  31 C31            3.9632     8.7226    -1.9441 C.3     
  32 F32            1.9086    -0.0455    -1.6827 F       
  33 F33            1.2575    -3.7715     1.1670 F       
  34 H34            1.9226     7.1023    -1.3699 H       
  35 H35            2.5384     4.2937    -0.9636 H       
  36 H36            1.6020     6.2711    -3.6577 H       
  37 H37            3.1063     7.2188    -3.5742 H       
  38 H38           -2.4089     0.0939    -0.3199 H       
  39 H39           -3.1280     1.5020     0.5002 H       
  40 H40           -2.9138     1.5380    -2.5060 H       
  41 H41           -4.1861     0.5452    -1.7578 H       
  42 H42           -4.6451     3.0823    -2.3525 H       
  43 H43           -5.2780     2.3817    -0.8484 H       
  44 H44           -2.1949     5.1266    -1.0403 H       
  45 H45           -2.6037     4.0533    -2.4020 H       
  46 H46           -1.1965    -0.0243     1.6116 H       
  47 H47            2.3712    -2.4519    -0.7873 H       
  48 H48           -0.5883    -2.3081     2.2876 H       
  49 H49           -5.3364     4.4407     0.3306 H       
  50 H50           -3.9192     5.5174     0.3118 H       
  51 H51           -4.8614     5.2604    -1.1763 H       
  52 H52            6.6708     7.3750    -1.6677 H       
  53 H53            6.2156     8.6993    -0.5689 H       
  54 H54            6.1525     7.0125    -0.0039 H       
  55 H55            4.9751     4.9085    -2.2833 H       
  56 H56            5.4905     4.6066    -3.9600 H       
  57 H57            5.1751     6.2704    -3.4118 H       
  58 H58            1.7271     3.8976    -3.1066 H       
  59 H59            3.0951     2.9597    -3.7525 H       
  60 H60            3.1987     3.6816    -2.1288 H       
  61 H61            3.7394     5.9274    -5.7012 H       
  62 H62            3.8833     4.1550    -5.6238 H       
  63 H63            2.2772     4.9206    -5.5732 H       
  64 H64            2.9155     8.4898    -2.1347 H       
  65 H65            4.0288     9.5846    -1.2802 H       
  66 H66            4.4619     8.9507    -2.8861 H       
@<TRIPOS>BOND
   1    1    2 1
   2    1    3 2
   3    1   18 1
   4    2   14 1
   5    2    5 1
   6    3    4 1
   7    3    7 1
   8    4    5 2
   9    5    6 1
  10    6   20 ar
  11    6   19 ar
  12    7    8 2
  13    7   10 am
  14    9   10 1
  15    9   11 1
  16    9   12 1
  17    9   34 1
  18   10   35 1
  19   11   27 1
  20   11   36 1
  21   11   37 1
  22   12   13 2
  23   12   25 am
  24   14   15 1
  25   14   38 1
  26   14   39 1
  27   15   16 1
  28   15   40 1
  29   15   41 1
  30   16   17 1
  31   16   42 1
  32   16   43 1
  33   17   18 1
  34   17   24 1
  35   18   44 1
  36   18   45 1
  37   19   23 ar
  38   19   46 1
  39   20   21 ar
  40   20   32 1
  41   21   22 ar
  42   21   47 1
  43   22   23 ar
  44   22   33 1
  45   23   48 1
  46   24   49 1
  47   24   50 1
  48   24   51 1
  49   25   26 1
  50   25   31 1
  51   26   52 1
  52   26   53 1
  53   26   54 1
  54   27   29 1
  55   27   30 1
  56   27   28 1
  57   28   55 1
  58   28   56 1
  59   28   57 1
  60   29   58 1
  61   29   59 1
  62   29   60 1
  63   30   61 1
  64   30   62 1
  65   30   63 1
  66   31   64 1
  67   31   65 1
  68   31   66 1

#	End of record

