#	Name: ASD02500136
#	Creating user name:	WinNT
#	Creation time:	15. 06. 2019 20:22

#	Modifying user name:	WinNT
#	Modification time:	15. 06. 2019 20:22

#	Program:	/corina/corina34_cracker 3.40 0067  02.08.2006

@<TRIPOS>MOLECULE
ASD02500136
  69   73    0    0    0
SMALL
NO_CHARGES


@<TRIPOS>ATOM
   1 N1             2.3456     3.9332    -0.5768 N.ar    
   2 C2             3.2580     3.5977     0.3025 C.ar    
   3 C3             4.3728     2.8400    -0.0503 C.ar    
   4 C4             4.5353     2.4270    -1.3419 C.ar    
   5 C5             3.5533     2.7888    -2.2834 C.ar    
   6 C6             3.6525     2.4012    -3.6291 C.ar    
   7 C7             2.6818     2.7716    -4.5094 C.ar    
   8 C8             1.5907     3.5310    -4.0925 C.ar    
   9 C9             1.4629     3.9239    -2.7957 C.ar    
  10 C10            2.4443     3.5613    -1.8571 C.ar    
  11 S11            0.0730     4.8844    -2.2956 S.o2    
  12 O12            0.5877     5.9709    -1.5381 O.2     
  13 O13           -0.7330     5.0569    -3.4531 O.2     
  14 N14           -0.8102     3.9584    -1.2445 N.am    
  15 C15           -1.4101     2.7847    -1.6873 C.ar    
  16 C16           -1.2942     1.6189    -0.9352 C.ar    
  17 C17           -1.8867     0.4557    -1.3707 C.ar    
  18 C18           -2.6056     0.4456    -2.5696 C.ar    
  19 C19           -2.7201     1.6179    -3.3225 C.ar    
  20 C20           -2.1301     2.7792    -2.8788 C.ar    
  21 C21           -3.2416    -0.7997    -3.0396 C.2     
  22 O22           -4.3602    -0.7691    -3.5153 O.2     
  23 N23           -2.5827    -1.9714    -2.9417 N.am    
  24 C24           -3.1658    -3.2052    -3.4873 C.3     
  25 C25           -2.1631    -3.8303    -4.4652 C.3     
  26 N26           -0.8486    -3.8969    -3.8113 N.am    
  27 C27           -0.2656    -2.6631    -3.2657 C.3     
  28 C28           -1.2657    -2.0370    -2.2928 C.3     
  29 C29           -0.1898    -5.0686    -3.7135 C.2     
  30 C30            1.2105    -5.1015    -3.1575 C.3     
  31 C31            1.7642    -6.5245    -3.2539 C.3     
  32 O32           -0.7239    -6.0965    -4.0728 O.2     
  33 C33            2.1010    -4.1523    -3.9619 C.3     
  34 C34            1.1885    -4.6677    -1.7145 C.ar    
  35 C35            2.3757    -4.4492    -1.0407 C.ar    
  36 C36            2.3566    -4.0509     0.2825 C.ar    
  37 C37            1.1479    -3.8707     0.9334 C.ar    
  38 C38           -0.0405    -4.0898     0.2575 C.ar    
  39 C39           -0.0190    -4.4830    -1.0672 C.ar    
  40 F40            1.1281    -3.4818     2.2270 F       
  41 H41            3.1426     3.9173     1.3277 H       
  42 H42            5.1080     2.5799     0.6969 H       
  43 H43            5.3935     1.8395    -1.6329 H       
  44 H44            4.4940     1.8131    -3.9643 H       
  45 H45            2.7590     2.4730    -5.5444 H       
  46 H46            0.8343     3.8127    -4.8101 H       
  47 H47           -0.9091     4.2348    -0.3200 H       
  48 H48           -0.7384     1.6273    -0.0093 H       
  49 H49           -1.7961    -0.4485    -0.7870 H       
  50 H50           -3.2745     1.6131    -4.2493 H       
  51 H51           -2.2222     3.6864    -3.4575 H       
  52 H52           -3.3692    -3.9037    -2.6757 H       
  53 H53           -4.0917    -2.9711    -4.0126 H       
  54 H54           -2.4903    -4.8352    -4.7320 H       
  55 H55           -2.0947    -3.2149    -5.3622 H       
  56 H56            0.6603    -2.8972    -2.7404 H       
  57 H57           -0.0621    -1.9646    -4.0773 H       
  58 H58           -0.9372    -1.0317    -2.0294 H       
  59 H59           -1.3308    -2.6505    -1.3942 H       
  60 H60            1.8606    -6.8067    -4.3023 H       
  61 H61            2.7423    -6.5671    -2.7747 H       
  62 H62            1.0841    -7.2137    -2.7532 H       
  63 H63            1.6522    -3.1591    -3.9777 H       
  64 H64            3.0863    -4.0985    -3.4987 H       
  65 H65            2.1989    -4.5230    -4.9822 H       
  66 H66            3.3184    -4.5902    -1.5485 H       
  67 H67            3.2842    -3.8806     0.8088 H       
  68 H68           -0.9839    -3.9496     0.7642 H       
  69 H69           -0.9459    -4.6500    -1.5958 H       
@<TRIPOS>BOND
   1    1    2 ar
   2    1   10 ar
   3    2    3 ar
   4    2   41 1
   5    3    4 ar
   6    3   42 1
   7    4    5 ar
   8    4   43 1
   9    5    6 ar
  10    5   10 ar
  11    6    7 ar
  12    6   44 1
  13    7    8 ar
  14    7   45 1
  15    8    9 ar
  16    8   46 1
  17    9   10 ar
  18    9   11 1
  19   11   12 2
  20   11   13 2
  21   11   14 am
  22   14   15 1
  23   14   47 1
  24   15   16 ar
  25   15   20 ar
  26   16   17 ar
  27   16   48 1
  28   17   18 ar
  29   17   49 1
  30   18   19 ar
  31   18   21 1
  32   19   20 ar
  33   19   50 1
  34   20   51 1
  35   21   22 2
  36   21   23 am
  37   23   24 1
  38   23   28 1
  39   24   25 1
  40   24   52 1
  41   24   53 1
  42   25   26 1
  43   25   54 1
  44   25   55 1
  45   26   27 1
  46   26   29 am
  47   27   28 1
  48   27   56 1
  49   27   57 1
  50   28   58 1
  51   28   59 1
  52   29   30 1
  53   29   32 2
  54   30   31 1
  55   30   33 1
  56   30   34 1
  57   31   60 1
  58   31   61 1
  59   31   62 1
  60   33   63 1
  61   33   64 1
  62   33   65 1
  63   34   35 ar
  64   34   39 ar
  65   35   36 ar
  66   35   66 1
  67   36   37 ar
  68   36   67 1
  69   37   38 ar
  70   37   40 1
  71   38   39 ar
  72   38   68 1
  73   39   69 1

#	End of record

