#	Name: ASD01120312
#	Creating user name:	WinNT
#	Creation time:	15. 06. 2019 18:59

#	Modifying user name:	WinNT
#	Modification time:	15. 06. 2019 18:59

#	Program:	/corina/corina34_cracker 3.40 0067  02.08.2006

@<TRIPOS>MOLECULE
ASD01120312
  37   39    0    0    0
SMALL
NO_CHARGES


@<TRIPOS>ATOM
   1 C1            -0.0187     1.5258     0.0104 C.3     
   2 C2             0.0021    -0.0041     0.0020 C.3     
   3 O3             0.6817    -0.4723    -1.1926 O.3     
   4 C4             0.7867    -1.8071    -1.3538 C.2     
   5 O5             0.3227    -2.5587    -0.5184 O.2     
   6 C6             1.4615    -2.3527    -2.5384 C.2     
   7 C7             1.6300    -3.6750    -2.8122 C.2     
   8 C8             2.3228    -3.7756    -4.0387 C.ar    
   9 C9             2.5618    -2.4630    -4.4874 C.ar    
  10 N10            2.0220    -1.6061    -3.5570 N.pl3   
  11 C11            3.2368    -2.2587    -5.6880 C.ar    
  12 C12            3.6683    -3.3347    -6.4327 C.ar    
  13 C13            3.4398    -4.6328    -6.0031 C.ar    
  14 C14            2.7709    -4.8686    -4.8113 C.ar    
  15 C15            2.5277    -6.2562    -4.3533 C.ar    
  16 C16            1.9666    -7.1920    -5.2219 C.ar    
  17 C17            1.7424    -8.4830    -4.7895 C.ar    
  18 C18            2.0728    -8.8498    -3.4971 C.ar    
  19 C19            2.6297    -7.9260    -2.6308 C.ar    
  20 C20            2.8644    -6.6336    -3.0536 C.ar    
  21 N21            3.4913    -0.8811    -6.1661 N.pl3   
  22 O22            4.0816    -0.7001    -7.2161 O.2     
  23 O23            3.1104     0.0715    -5.5096 O.2     
  24 H24            1.0039     1.9031     0.0027 H       
  25 H25           -0.5459     1.8868    -0.8726 H       
  26 H26           -0.5289     1.8773     0.9072 H       
  27 H27            0.5293    -0.3651     0.8851 H       
  28 H28           -1.0205    -0.3814     0.0098 H       
  29 H29            1.2943    -4.4997    -2.2010 H       
  30 H30            2.0374    -0.6374    -3.6050 H       
  31 H31            4.1906    -3.1647    -7.3626 H       
  32 H32            3.7849    -5.4647    -6.5993 H       
  33 H33            1.7076    -6.9066    -6.2309 H       
  34 H34            1.3079    -9.2085    -5.4612 H       
  35 H35            1.8948    -9.8612    -3.1630 H       
  36 H36            2.8855    -8.2182    -1.6231 H       
  37 H37            3.2995    -5.9135    -2.3765 H       
@<TRIPOS>BOND
   1    1    2 1
   2    1   24 1
   3    1   25 1
   4    1   26 1
   5    2    3 1
   6    2   27 1
   7    2   28 1
   8    3    4 1
   9    4    5 2
  10    4    6 1
  11    6    7 2
  12    6   10 1
  13    7    8 1
  14    7   29 1
  15    8    9 ar
  16    8   14 ar
  17    9   10 1
  18    9   11 ar
  19   10   30 1
  20   11   12 ar
  21   11   21 1
  22   12   13 ar
  23   12   31 1
  24   13   14 ar
  25   13   32 1
  26   14   15 1
  27   15   16 ar
  28   15   20 ar
  29   16   17 ar
  30   16   33 1
  31   17   18 ar
  32   17   34 1
  33   18   19 ar
  34   18   35 1
  35   19   20 ar
  36   19   36 1
  37   20   37 1
  38   21   22 2
  39   21   23 2

#	End of record

