#	Name: ASD01916179
#	Creating user name:	WinNT
#	Creation time:	15. 06. 2019 20:06

#	Modifying user name:	WinNT
#	Modification time:	15. 06. 2019 20:06

#	Program:	/corina/corina34_cracker 3.40 0067  02.08.2006

@<TRIPOS>MOLECULE
ASD01916179
  40   42    0    0    0
SMALL
NO_CHARGES


@<TRIPOS>ATOM
   1 C1            -0.4109     1.7406     0.1047 C.ar    
   2 C2            -0.5437     0.3904     0.3733 C.ar    
   3 N3             0.4993    -0.3398     0.7067 N.ar    
   4 C4             1.7173     0.1815     0.7997 C.ar    
   5 C5             1.9308     1.5324     0.5446 C.ar    
   6 C6             0.8471     2.3315     0.1895 C.ar    
   7 C7            -1.9030    -0.2541     0.2835 C.3     
   8 O8             1.0130     3.6539    -0.0675 O.3     
   9 C9             2.2647     4.1724     0.0384 C.ar    
  10 C10            3.1950     3.9765    -0.9721 C.ar    
  11 N11            4.4107     4.4769    -0.8749 N.ar    
  12 C12            4.7917     5.1781     0.1745 C.ar    
  13 C13            3.9198     5.4168     1.2239 C.ar    
  14 C14            2.6293     4.9118     1.1590 C.ar    
  15 C15            2.8587    -0.6831     1.1792 C.2     
  16 N16            2.6587    -1.9925     1.4281 N.am    
  17 O17            3.9754    -0.2118     1.2659 O.2     
  18 C18            3.7452    -2.8275     1.6817 C.ar    
  19 C19            3.5438    -4.1957     1.8223 C.ar    
  20 C20            4.6312    -5.0141     2.0735 C.ar    
  21 C21            5.8883    -4.4325     2.1759 C.ar    
  22 C22            6.0148    -3.0643     2.0249 C.ar    
  23 N23            4.9599    -2.3108     1.7810 N.ar    
  24 C24           -1.8401    -1.4458    -0.6741 C.3     
  25 F25            4.3181     6.1405     2.2929 F       
  26 Cl26           7.2858    -5.4133     2.4906 Cl      
  27 H27           -1.2728     2.3294    -0.1722 H       
  28 H28            2.9218     1.9549     0.6210 H       
  29 H29           -2.2081    -0.5980     1.2718 H       
  30 H30           -2.6258     0.4724    -0.0876 H       
  31 H31            2.9203     3.4073    -1.8478 H       
  32 H32            5.7968     5.5710     0.2167 H       
  33 H33            1.9275     5.0819     1.9621 H       
  34 H34            1.7584    -2.3537     1.4308 H       
  35 H35            2.5520    -4.6145     1.7370 H       
  36 H36            4.5051    -6.0806     2.1878 H       
  37 H37            6.9900    -2.6071     2.1036 H       
  38 H38           -2.8232    -1.9119    -0.7391 H       
  39 H39           -1.5350    -1.1019    -1.6624 H       
  40 H40           -1.1173    -2.1723    -0.3030 H       
@<TRIPOS>BOND
   1    1    2 ar
   2    1    6 ar
   3    1   27 1
   4    2    3 ar
   5    2    7 1
   6    3    4 ar
   7    4    5 ar
   8    4   15 1
   9    5    6 ar
  10    5   28 1
  11    6    8 1
  12    7   24 1
  13    7   29 1
  14    7   30 1
  15    8    9 1
  16    9   10 ar
  17    9   14 ar
  18   10   11 ar
  19   10   31 1
  20   11   12 ar
  21   12   13 ar
  22   12   32 1
  23   13   14 ar
  24   13   25 1
  25   14   33 1
  26   15   16 am
  27   15   17 2
  28   16   18 1
  29   16   34 1
  30   18   19 ar
  31   18   23 ar
  32   19   20 ar
  33   19   35 1
  34   20   21 ar
  35   20   36 1
  36   21   22 ar
  37   21   26 1
  38   22   23 ar
  39   22   37 1
  40   24   38 1
  41   24   39 1
  42   24   40 1

#	End of record

