#	Name: ASD01916506
#	Creating user name:	WinNT
#	Creation time:	15. 06. 2019 20:07

#	Modifying user name:	WinNT
#	Modification time:	15. 06. 2019 20:07

#	Program:	/corina/corina34_cracker 3.40 0067  02.08.2006

@<TRIPOS>MOLECULE
ASD01916506
  32   33    0    0    0
SMALL
NO_CHARGES


@<TRIPOS>ATOM
   1 C1            -0.0179     1.4722     0.0101 C.2     
   2 C2             0.0021    -0.0041     0.0020 C.ar    
   3 C3             1.2201    -0.6899    -0.0133 C.ar    
   4 C4             1.2303    -2.0708    -0.0203 C.ar    
   5 C5             0.0394    -2.7742    -0.0123 C.ar    
   6 C6            -1.1697    -2.1010     0.0024 C.ar    
   7 C7            -1.1955    -0.7220     0.0154 C.ar    
   8 O8             1.0257     2.0939     0.0035 O.2     
   9 O9            -1.1937     2.1299     0.0193 O.3     
  10 Cl10           2.7155     0.1918    -0.0240 Cl      
  11 C11           -1.1374     3.5808     0.0269 C.3     
  12 C12           -2.5590     4.1463     0.0367 C.3     
  13 C13           -2.5019     5.6172     0.0444 C.1     
  14 C14           -2.4564     6.7903     0.0506 C.1     
  15 C15           -2.4008     8.2212     0.0581 C.ar    
  16 C16           -3.5846     8.9600     0.0678 C.ar    
  17 C17           -3.5142    10.3416     0.0749 C.ar    
  18 C18           -2.2624    10.9417     0.0723 C.ar    
  19 C19           -1.1296    10.1490     0.0626 C.ar    
  20 N20           -1.2231     8.8349     0.0613 N.ar    
  21 H21            2.1702    -2.6027    -0.0325 H       
  22 H22            0.0530    -3.8541    -0.0178 H       
  23 H23           -2.0955    -2.6570     0.0080 H       
  24 H24           -2.1401    -0.1986     0.0318 H       
  25 H25           -0.6056     3.9191     0.9162 H       
  26 H26           -0.6141     3.9288    -0.8637 H       
  27 H27           -3.0907     3.8080    -0.8526 H       
  28 H28           -3.0823     3.7983     0.9273 H       
  29 H29           -4.5420     8.4603     0.0692 H       
  30 H30           -4.4132    10.9401     0.0821 H       
  31 H31           -2.1741    12.0181     0.0773 H       
  32 H32           -0.1546    10.6134     0.0601 H       
@<TRIPOS>BOND
   1    1    2 1
   2    1    8 2
   3    1    9 1
   4    2    3 ar
   5    2    7 ar
   6    3    4 ar
   7    3   10 1
   8    4    5 ar
   9    4   21 1
  10    5    6 ar
  11    5   22 1
  12    6    7 ar
  13    6   23 1
  14    7   24 1
  15    9   11 1
  16   11   12 1
  17   11   25 1
  18   11   26 1
  19   12   13 1
  20   12   27 1
  21   12   28 1
  22   13   14 3
  23   14   15 1
  24   15   16 ar
  25   15   20 ar
  26   16   17 ar
  27   16   29 1
  28   17   18 ar
  29   17   30 1
  30   18   19 ar
  31   18   31 1
  32   19   20 ar
  33   19   32 1

#	End of record

