#	Name: ASD01882569
#	Creating user name:	WinNT
#	Creation time:	15. 06. 2019 19:44

#	Modifying user name:	WinNT
#	Modification time:	15. 06. 2019 19:44

#	Program:	/corina/corina34_cracker 3.40 0067  02.08.2006

@<TRIPOS>MOLECULE
ASD01882569
  52   56    0    0    0
SMALL
NO_CHARGES


@<TRIPOS>ATOM
   1 C1            -0.7236     2.7072     1.7151 C.3     
   2 C2            -0.6400     1.2573     1.1915 C.3     
   3 N3            -0.3406     0.4410     2.3961 N.3     
   4 C4             0.6259     1.2662     3.1653 C.3     
   5 C5             0.1092     2.7131     3.0136 C.3     
   6 C6             0.5701     3.5199     1.7981 C.3     
   7 C7             0.2505    -0.8511     2.0229 C.3     
   8 C8             0.4812    -3.0849     5.0614 C.2     
   9 C9            -0.0177    -2.4479     3.9089 C.2     
  10 C10            0.7638    -1.5443     3.2586 C.2     
  11 C11            2.0521    -1.2600     3.7432 C.2     
  12 C12            2.5170    -1.8786     4.8488 C.2     
  13 N13            1.7443    -2.7868     5.5107 N.pl3   
  14 N14            0.8447    -4.2487     6.8094 N.2     
  15 N15           -0.0209    -3.9806     5.8957 N.2     
  16 C16            1.9340    -3.5494     6.6215 C.2     
  17 C17           -1.4012    -2.7637     3.4019 C.3     
  18 F18           -1.3103    -3.6297     2.3069 F       
  19 F19           -2.1426    -3.3743     4.4191 F       
  20 F20           -2.0353    -1.5801     3.0090 F       
  21 C21            3.1722    -3.5809     7.4799 C.3     
  22 C22            3.0506    -2.5339     8.5890 C.3     
  23 C23            4.3077    -2.5658     9.4605 C.3     
  24 C24            1.7635     3.0056     1.0350 C.ar    
  25 C25            1.6661     2.7702    -0.3237 C.ar    
  26 C26            2.7608     2.2984    -1.0236 C.ar    
  27 C27            3.9531     2.0624    -0.3649 C.ar    
  28 C28            4.0507     2.2987     0.9936 C.ar    
  29 C29            2.9573     2.7746     1.6927 C.ar    
  30 H30           -1.6779     3.2249     1.6183 H       
  31 H31           -1.5919     0.9554     0.7547 H       
  32 H32            0.1622     1.1631     0.4595 H       
  33 H33            0.6272     0.9711     4.2146 H       
  34 H34            1.6262     1.1735     2.7423 H       
  35 H35           -0.2338     3.2238     3.9134 H       
  36 H36            0.4793     4.6048     1.8514 H       
  37 H37           -0.5070    -1.4728     1.5456 H       
  38 H38            1.0752    -0.6865     1.3294 H       
  39 H39            2.6736    -0.5427     3.2277 H       
  40 H40            3.5087    -1.6528     5.2122 H       
  41 H41            3.2811    -4.5701     7.9244 H       
  42 H42            4.0456    -3.3602     6.8661 H       
  43 H43            2.9417    -1.5447     8.1444 H       
  44 H44            2.1773    -2.7546     9.2027 H       
  45 H45            4.2211    -1.8200    10.2506 H       
  46 H46            4.4166    -3.5551     9.9050 H       
  47 H47            5.1811    -2.3452     8.8467 H       
  48 H48            0.7347     2.9545    -0.8382 H       
  49 H49            2.6846     2.1138    -2.0850 H       
  50 H50            4.8081     1.6931    -0.9117 H       
  51 H51            4.9821     2.1140     1.5082 H       
  52 H52            3.0346     2.9627     2.7534 H       
@<TRIPOS>BOND
   1    1    2 1
   2    1    6 1
   3    1    5 1
   4    1   30 1
   5    2    3 1
   6    2   31 1
   7    2   32 1
   8    3    4 1
   9    3    7 1
  10    4    5 1
  11    4   33 1
  12    4   34 1
  13    5    6 1
  14    5   35 1
  15    6   24 1
  16    6   36 1
  17    7   10 1
  18    7   37 1
  19    7   38 1
  20    8    9 1
  21    8   13 1
  22    8   15 2
  23    9   10 2
  24    9   17 1
  25   10   11 1
  26   11   12 2
  27   11   39 1
  28   12   13 1
  29   12   40 1
  30   13   16 1
  31   14   15 1
  32   14   16 2
  33   16   21 1
  34   17   18 1
  35   17   19 1
  36   17   20 1
  37   21   22 1
  38   21   41 1
  39   21   42 1
  40   22   23 1
  41   22   43 1
  42   22   44 1
  43   23   45 1
  44   23   46 1
  45   23   47 1
  46   24   25 ar
  47   24   29 ar
  48   25   26 ar
  49   25   48 1
  50   26   27 ar
  51   26   49 1
  52   27   28 ar
  53   27   50 1
  54   28   29 ar
  55   28   51 1
  56   29   52 1

#	End of record

