#	Name: ASD03430900
#	Creating user name:	WinNT
#	Creation time:	15. 06. 2019 20:41

#	Modifying user name:	WinNT
#	Modification time:	15. 06. 2019 20:41

#	Program:	/corina/corina34_cracker 3.40 0067  02.08.2006

@<TRIPOS>MOLECULE
ASD03430900
  40   43    0    0    0
SMALL
NO_CHARGES


@<TRIPOS>ATOM
   1 O1            -0.0175     1.4361     0.0099 O.3     
   2 C2             0.0021    -0.0041     0.0020 C.3     
   3 C3             1.3450    -0.3157    -0.6728 C.3     
   4 C4             2.1584     0.9230    -0.4102 C.ar    
   5 C5             1.2627     1.9059     0.0002 C.ar    
   6 C6             1.7499     3.1679     0.3284 C.ar    
   7 C7             3.0984     3.4412     0.2371 C.ar    
   8 C8             3.9833     2.4585    -0.1820 C.ar    
   9 C9             3.5055     1.1969    -0.5051 C.ar    
  10 N10            2.1551    -2.4041    -1.1281 N.am    
  11 C11            1.9841    -1.5484    -0.1008 C.2     
  12 C12            1.1846    -0.5941    -2.1379 C.ar    
  13 C13            0.6732     0.1271    -3.1930 C.ar    
  14 C14            0.6636    -0.4175    -4.4652 C.ar    
  15 C15            1.1688    -1.6874    -4.6739 C.ar    
  16 C16            1.6824    -2.4145    -3.6198 C.ar    
  17 C17            1.6965    -1.8743    -2.3366 C.ar    
  18 O18            2.2873    -1.7369     1.0583 O.2     
  19 O19            7.5877     4.0156    -1.4716 O.3     
  20 O20            5.3123     2.7306    -0.2754 O.3     
  21 C21            5.7303     4.0516     0.0741 C.3     
  22 C22            7.2468     4.1675    -0.0922 C.3     
  23 C23            8.9887     4.1078    -1.7376 C.3     
  24 H24           -0.0205    -0.3969     1.0185 H       
  25 H25           -0.8269    -0.3991    -0.5852 H       
  26 H26            1.0674     3.9380     0.6563 H       
  27 H27            3.4668     4.4238     0.4924 H       
  28 H28            4.1904     0.4281    -0.8311 H       
  29 H29            2.5504    -3.2854    -1.0387 H       
  30 H30            0.2787     1.1188    -3.0277 H       
  31 H31            0.2620     0.1480    -5.2930 H       
  32 H32            1.1612    -2.1124    -5.6668 H       
  33 H33            2.0748    -3.4060    -3.7906 H       
  34 H34            5.2372     4.7730    -0.5775 H       
  35 H35            5.4618     4.2553     1.1107 H       
  36 H36            7.7369     3.3880     0.4912 H       
  37 H37            7.5771     5.1454     0.2582 H       
  38 H38            9.3552     5.0844    -1.4213 H       
  39 H39            9.5150     3.3270    -1.1884 H       
  40 H40            9.1648     3.9821    -2.8059 H       
@<TRIPOS>BOND
   1    1    2 1
   2    1    5 1
   3    2    3 1
   4    2   24 1
   5    2   25 1
   6    3    4 1
   7    3   11 1
   8    3   12 1
   9    4    5 ar
  10    4    9 ar
  11    5    6 ar
  12    6    7 ar
  13    6   26 1
  14    7    8 ar
  15    7   27 1
  16    8    9 ar
  17    8   20 1
  18    9   28 1
  19   10   11 am
  20   10   17 1
  21   10   29 1
  22   11   18 2
  23   12   13 ar
  24   12   17 ar
  25   13   14 ar
  26   13   30 1
  27   14   15 ar
  28   14   31 1
  29   15   16 ar
  30   15   32 1
  31   16   17 ar
  32   16   33 1
  33   19   23 1
  34   19   22 1
  35   20   21 1
  36   21   22 1
  37   21   34 1
  38   21   35 1
  39   22   36 1
  40   22   37 1
  41   23   38 1
  42   23   39 1
  43   23   40 1

#	End of record

