#	Name: ASD02170003
#	Creating user name:	WinNT
#	Creation time:	15. 06. 2019 20:18

#	Modifying user name:	WinNT
#	Modification time:	15. 06. 2019 20:18

#	Program:	/corina/corina34_cracker 3.40 0067  02.08.2006

@<TRIPOS>MOLECULE
ASD02170003
  34   35    0    0    0
SMALL
NO_CHARGES


@<TRIPOS>ATOM
   1 N1             0.0319     1.5434     0.1427 N.am    
   2 C2             0.0667     0.1829     0.3639 C.2     
   3 N3             1.1523    -0.4267     0.7425 N.2     
   4 C4             2.3734     0.3328     0.9755 C.3     
   5 C5             2.4723     1.4699    -0.0450 C.3     
   6 C6             1.1797     2.2395    -0.0297 C.2     
   7 N7             3.5801    -0.4911     0.8838 N.3     
   8 C8             4.7663     0.3244     1.1968 C.3     
   9 C9             4.8583     1.5130     0.2401 C.3     
  10 N10            3.6215     2.3109     0.2977 N.3     
  11 C11            5.0646     1.0003    -1.1866 C.3     
  12 C12            6.4430     0.3460    -1.2992 C.3     
  13 C13            6.7140    -0.0247    -2.7586 C.3     
  14 O14            4.9801     2.0939    -2.1026 O.3     
  15 O15            6.4775    -0.8338    -0.4937 O.3     
  16 O16            1.1666     3.4441    -0.1670 O.2     
  17 N17           -1.0801    -0.5517     0.1793 N.pl3   
  18 H18            5.7051     2.1388     0.5222 H       
  19 H19           -0.8210     2.0040     0.1065 H       
  20 H20            2.3332     0.7630     1.9762 H       
  21 H21            2.6294     1.0496    -1.0383 H       
  22 H22            3.5193    -1.2909     1.4960 H       
  23 H23            4.6929     0.6902     2.2210 H       
  24 H24            5.6622    -0.2886     1.0982 H       
  25 H25            3.6788     3.1115    -0.3137 H       
  26 H26            4.2939     0.2671    -1.4241 H       
  27 H27            7.2058     1.0440    -0.9540 H       
  28 H28            7.6960    -0.4909    -2.8388 H       
  29 H29            5.9512    -0.7227    -3.1038 H       
  30 H30            6.6877     0.8752    -3.3730 H       
  31 H31            5.6146     2.8026    -1.9286 H       
  32 H32            7.3236    -1.3014    -0.5169 H       
  33 H33           -1.8976    -0.1121    -0.1025 H       
  34 H34           -1.0721    -1.5098     0.3307 H       
@<TRIPOS>BOND
   1    1    2 1
   2    1    6 am
   3    1   19 1
   4    2    3 2
   5    2   17 1
   6    3    4 1
   7    4    5 1
   8    4    7 1
   9    4   20 1
  10    5    6 1
  11    5   10 1
  12    5   21 1
  13    6   16 2
  14    7    8 1
  15    7   22 1
  16    8    9 1
  17    8   23 1
  18    8   24 1
  19    9   10 1
  20    9   11 1
  21    9   18 1
  22   10   25 1
  23   11   12 1
  24   11   14 1
  25   11   26 1
  26   12   13 1
  27   12   15 1
  28   12   27 1
  29   13   28 1
  30   13   29 1
  31   13   30 1
  32   14   31 1
  33   15   32 1
  34   17   33 1
  35   17   34 1

#	End of record

