#	Name: ASD09116085
#	Creating user name:	WinNT
#	Creation time:	15. 06. 2019 21:20

#	Modifying user name:	WinNT
#	Modification time:	15. 06. 2019 21:20

#	Program:	/corina/corina34_cracker 3.40 0067  02.08.2006

@<TRIPOS>MOLECULE
ASD09116085
  64   69    0    0    0
SMALL
NO_CHARGES


@<TRIPOS>ATOM
   1 C1             0.3004     1.2762    -1.3603 C.ar    
   2 N2             0.2598    -0.0913    -1.1262 N.pl3   
   3 N3             1.3074    -0.8954    -0.6488 N.2     
   4 C4             0.8463    -2.1206    -0.5729 C.2     
   5 N5            -0.4303    -2.1355    -0.9744 N.2     
   6 C6            -0.8050    -0.9193    -1.3079 C.2     
   7 N7            -2.0536    -0.5501    -1.7679 N.pl3   
   8 N8             1.5710    -3.2314    -0.1427 N.pl3   
   9 C9             0.8352     2.1626    -0.3966 C.ar    
  10 N10           -0.1559     1.7861    -2.4950 N.ar    
  11 C11           -0.1228     3.0880    -2.7312 C.ar    
  12 N12            0.3570     3.9570    -1.8735 N.ar    
  13 C13            0.8488     3.5478    -0.6954 C.ar    
  14 C14            0.9357    -4.4679    -0.0005 C.ar    
  15 C15           -0.4132    -4.5193     0.3298 C.ar    
  16 C16           -1.0212    -5.7531     0.4288 C.ar    
  17 C17           -0.3031    -6.9130     0.2041 C.ar    
  18 C18            1.0520    -6.8954    -0.0570 C.ar    
  19 C19            1.6483    -5.6331    -0.1941 C.ar    
  20 C20           -1.0676    -8.2189     0.1622 C.3     
  21 C21           -1.1860    -8.7604    -1.2604 C.3     
  22 N22            0.1148    -8.9694    -1.8776 N.3     
  23 C23            0.8116   -10.0027    -1.1447 C.3     
  24 C24            1.4383    -9.4079     0.1067 C.3     
  25 C25            2.0416    -8.0319    -0.1489 C.3     
  26 C26           -0.0267    -9.3327    -3.2939 C.3     
  27 C27           -0.8376    -8.2558    -4.0359 C.3     
  28 C28            0.0848    -7.6888    -5.1348 C.3     
  29 C29            1.1120    -8.8197    -5.3893 C.3     
  30 C30            1.3601    -9.3825    -3.9678 C.3     
  31 C31            1.3688     4.4479     0.2452 C.ar    
  32 C32            1.8561     3.9791     1.4282 C.ar    
  33 C33            1.8462     2.6153     1.7196 C.ar    
  34 C34            1.3446     1.7120     0.8269 C.ar    
  35 F35            2.3369     2.1826     2.9016 F       
  36 H36           -2.7497    -1.2178    -1.8704 H       
  37 H37           -2.2345     0.3770    -1.9886 H       
  38 H38            2.5162    -3.1459     0.0579 H       
  39 H39           -0.5077     3.4512    -3.6726 H       
  40 H40           -0.9731    -3.6126     0.5056 H       
  41 H41           -2.0687    -5.8139     0.6848 H       
  42 H42            2.6958    -5.5719    -0.4497 H       
  43 H43           -0.5500    -8.9531     0.7795 H       
  44 H44           -2.0676    -8.0577     0.5649 H       
  45 H45           -1.7218    -9.7093    -1.2344 H       
  46 H46           -1.7536    -8.0512    -1.8629 H       
  47 H47            0.1077   -10.7853    -0.8619 H       
  48 H48            1.5921   -10.4310    -1.7736 H       
  49 H49            0.6732    -9.3208     0.8782 H       
  50 H50            2.2219   -10.0771     0.4621 H       
  51 H51            2.4836    -8.0269    -1.1453 H       
  52 H52            2.8348    -7.8606     0.5789 H       
  53 H53           -0.5211   -10.3001    -3.3833 H       
  54 H54           -1.7250    -8.7007    -4.4861 H       
  55 H55           -1.1261    -7.4636    -3.3451 H       
  56 H56           -0.4847    -7.4797    -6.0404 H       
  57 H57            0.5882    -6.7882    -4.7831 H       
  58 H58            0.6900    -9.5857    -6.0398 H       
  59 H59            2.0329    -8.4173    -5.8116 H       
  60 H60            2.0694    -8.7555    -3.4276 H       
  61 H61            1.7213   -10.4095    -4.0218 H       
  62 H62            1.3834     5.5069     0.0333 H       
  63 H63            2.2566     4.6743     2.1511 H       
  64 H64            1.3413     0.6581     1.0628 H       
@<TRIPOS>BOND
   1    1    2 1
   2    1    9 ar
   3    1   10 ar
   4    2    3 1
   5    2    6 1
   6    3    4 2
   7    4    5 1
   8    4    8 1
   9    5    6 2
  10    6    7 1
  11    7   36 1
  12    7   37 1
  13    8   14 1
  14    8   38 1
  15    9   13 ar
  16    9   34 ar
  17   10   11 ar
  18   11   12 ar
  19   11   39 1
  20   12   13 ar
  21   13   31 ar
  22   14   15 ar
  23   14   19 ar
  24   15   16 ar
  25   15   40 1
  26   16   17 ar
  27   16   41 1
  28   17   18 ar
  29   17   20 1
  30   18   19 ar
  31   18   25 1
  32   19   42 1
  33   20   21 1
  34   20   43 1
  35   20   44 1
  36   21   22 1
  37   21   45 1
  38   21   46 1
  39   22   23 1
  40   22   26 1
  41   23   24 1
  42   23   47 1
  43   23   48 1
  44   24   25 1
  45   24   49 1
  46   24   50 1
  47   25   51 1
  48   25   52 1
  49   26   27 1
  50   26   30 1
  51   26   53 1
  52   27   28 1
  53   27   54 1
  54   27   55 1
  55   28   29 1
  56   28   56 1
  57   28   57 1
  58   29   30 1
  59   29   58 1
  60   29   59 1
  61   30   60 1
  62   30   61 1
  63   31   32 ar
  64   31   62 1
  65   32   33 ar
  66   32   63 1
  67   33   34 ar
  68   33   35 1
  69   34   64 1

#	End of record

