#	Name: ASD01028001
#	Creating user name:	WinNT
#	Creation time:	15. 06. 2019 18:56

#	Modifying user name:	WinNT
#	Modification time:	15. 06. 2019 18:56

#	Program:	/corina/corina34_cracker 3.40 0067  02.08.2006

@<TRIPOS>MOLECULE
ASD01028001
  54   56    0    0    0
SMALL
NO_CHARGES


@<TRIPOS>ATOM
   1 C1            -0.0134     1.4101     0.0548 C.ar    
   2 C2             0.0043    -0.0057     0.0325 C.ar    
   3 C3             1.1981     2.1149     0.0629 C.ar    
   4 C4             2.3776     1.4339     0.0494 C.ar    
   5 C5             2.4013     0.0374     0.0274 C.ar    
   6 C6             1.2274    -0.6847     0.0189 C.ar    
   7 O7             3.5934    -0.6155     0.0143 O.3     
   8 C8            -2.3163     1.3524     0.0703 C.ar    
   9 N9            -1.1989     2.0389     0.0730 N.ar    
  10 N10           -2.3491     0.0293     0.0396 N.ar    
  11 C11           -1.2356    -0.6907     0.0252 C.ar    
  12 C12            3.6763     2.1983     0.0577 C.3     
  13 C13            4.1759     2.3708    -1.3781 C.3     
  14 C14            3.5507    -2.0437    -0.0080 C.3     
  15 C15            5.4944     3.1469    -1.3696 C.3     
  16 O16            5.9609     3.3079    -2.7106 O.3     
  17 O17            5.6301    -2.2569     1.2048 O.3     
  18 C18            4.9772    -2.5965    -0.0201 C.3     
  19 C19            7.1933     4.0238    -2.8153 C.3     
  20 C20            6.9758    -2.7288     1.2965 C.3     
  21 N21           -1.2835    -2.0698     0.0033 N.pl3   
  22 C22           -2.5112    -2.7285     0.1175 C.ar    
  23 C23           -2.7270    -3.9196    -0.5654 C.ar    
  24 C24           -3.9394    -4.5746    -0.4555 C.ar    
  25 C25           -4.9433    -4.0501     0.3329 C.ar    
  26 C26           -4.7362    -2.8545     1.0231 C.ar    
  27 C27           -3.5119    -2.1965     0.9167 C.ar    
  28 C28           -5.7766    -2.3081     1.8414 C.1     
  29 C29           -6.6296    -1.8602     2.5123 C.1     
  30 H30            1.1963     3.1948     0.0795 H       
  31 H31            1.2515    -1.7643     0.0019 H       
  32 H32           -3.2522     1.8910     0.0858 H       
  33 H33            3.5181     3.1785     0.5076 H       
  34 H34            4.4180     1.6482     0.6369 H       
  35 H35            4.3341     1.3906    -1.8279 H       
  36 H36            3.4342     2.9209    -1.9572 H       
  37 H37            3.0283    -2.4054     0.8777 H       
  38 H38            3.0240    -2.3775    -0.9021 H       
  39 H39            5.3361     4.1270    -0.9198 H       
  40 H40            6.2361     2.5968    -0.7905 H       
  41 H41            4.9458    -3.6808    -0.1266 H       
  42 H42            5.5270    -2.1650    -0.8566 H       
  43 H43            7.0703     5.0222    -2.3954 H       
  44 H44            7.9702     3.4919    -2.2661 H       
  45 H45            7.4793     4.1034    -3.8640 H       
  46 H46            7.4010    -2.4303     2.2547 H       
  47 H47            6.9859    -3.8158     1.2173 H       
  48 H48            7.5671    -2.3000     0.4873 H       
  49 H49           -0.4652    -2.5820    -0.0914 H       
  50 H50           -1.9452    -4.3347    -1.1841 H       
  51 H51           -4.1016    -5.4997    -0.9887 H       
  52 H52           -5.8893    -4.5645     0.4155 H       
  53 H53           -3.3461    -1.2712     1.4485 H       
  54 H54           -7.3925    -1.4595     3.1123 H       
@<TRIPOS>BOND
   1    1    2 ar
   2    1    3 ar
   3    1    9 ar
   4    2   11 ar
   5    2    6 ar
   6    3    4 ar
   7    3   30 1
   8    4    5 ar
   9    4   12 1
  10    5    6 ar
  11    5    7 1
  12    6   31 1
  13    7   14 1
  14    8    9 ar
  15    8   10 ar
  16    8   32 1
  17   10   11 ar
  18   11   21 1
  19   12   13 1
  20   12   33 1
  21   12   34 1
  22   13   15 1
  23   13   35 1
  24   13   36 1
  25   14   18 1
  26   14   37 1
  27   14   38 1
  28   15   16 1
  29   15   39 1
  30   15   40 1
  31   16   19 1
  32   17   18 1
  33   17   20 1
  34   18   41 1
  35   18   42 1
  36   19   43 1
  37   19   44 1
  38   19   45 1
  39   20   46 1
  40   20   47 1
  41   20   48 1
  42   21   22 1
  43   21   49 1
  44   22   23 ar
  45   22   27 ar
  46   23   24 ar
  47   23   50 1
  48   24   25 ar
  49   24   51 1
  50   25   26 ar
  51   25   52 1
  52   26   27 ar
  53   26   28 1
  54   27   53 1
  55   28   29 3
  56   29   54 1

#	End of record

