#	Name: ASD03731555
#	Creating user name:	WinNT
#	Creation time:	15. 06. 2019 20:45

#	Modifying user name:	WinNT
#	Modification time:	15. 06. 2019 20:45

#	Program:	/corina/corina34_cracker 3.40 0067  02.08.2006

@<TRIPOS>MOLECULE
ASD03731555
  36   37    0    0    0
SMALL
NO_CHARGES


@<TRIPOS>ATOM
   1 C1            -0.4038     1.1047    -1.9597 C.2     
   2 C2            -0.2822    -0.2734    -1.4497 C.ar    
   3 C3             0.9017    -0.9939    -1.6484 C.ar    
   4 C4             1.0100    -2.2836    -1.1690 C.ar    
   5 C5            -0.0529    -2.8656    -0.4908 C.ar    
   6 C6            -1.2312    -2.1522    -0.2915 C.ar    
   7 C7            -1.3467    -0.8627    -0.7612 C.ar    
   8 O8             0.5251     1.6173    -2.5540 O.2     
   9 N9            -1.5464     1.7944    -1.7720 N.am    
  10 S10           -1.6829     3.3422    -2.3448 S.o2    
  11 O11           -2.9850     3.7494    -1.9474 O.2     
  12 O12           -0.5260     4.0023    -1.8499 O.2     
  13 C13           -1.5934     3.1670    -4.1481 C.3     
  14 F14            1.9357    -0.4280    -2.3086 F       
  15 O15            0.0574    -4.1342    -0.0213 O.3     
  16 C16            1.2596    -4.7565    -0.1411 C.ar    
  17 C17            2.2113    -4.6284     0.8607 C.ar    
  18 C18            3.4322    -5.2621     0.7372 C.ar    
  19 C19            3.7071    -6.0240    -0.3849 C.ar    
  20 C20            2.7597    -6.1530    -1.3849 C.ar    
  21 C21            1.5350    -5.5254    -1.2625 C.ar    
  22 C22            4.4660    -5.1233     1.8249 C.3     
  23 F23            3.9617    -4.3117     2.8468 F       
  24 F24            4.7722    -6.3870     2.3412 F       
  25 F25            5.6238    -4.5424     1.2965 F       
  26 Cl26           5.2430    -6.8185    -0.5382 Cl      
  27 Cl27          -2.5557    -2.8870     0.5568 Cl      
  28 H28            1.9224    -2.8410    -1.3217 H       
  29 H29           -2.2600    -0.3088    -0.6014 H       
  30 H30           -2.2888     1.3842    -1.3015 H       
  31 H31           -2.4098     2.5322    -4.4925 H       
  32 H32           -1.6760     4.1494    -4.6131 H       
  33 H33           -0.6406     2.7142    -4.4223 H       
  34 H34            1.9974    -4.0333     1.7362 H       
  35 H35            2.9761    -6.7480    -2.2598 H       
  36 H36            0.7940    -5.6299    -2.0413 H       
@<TRIPOS>BOND
   1    1    2 1
   2    1    8 2
   3    1    9 am
   4    2    3 ar
   5    2    7 ar
   6    3    4 ar
   7    3   14 1
   8    4    5 ar
   9    4   28 1
  10    5    6 ar
  11    5   15 1
  12    6    7 ar
  13    6   27 1
  14    7   29 1
  15    9   10 am
  16    9   30 1
  17   10   11 2
  18   10   12 2
  19   10   13 1
  20   13   31 1
  21   13   32 1
  22   13   33 1
  23   15   16 1
  24   16   17 ar
  25   16   21 ar
  26   17   18 ar
  27   17   34 1
  28   18   19 ar
  29   18   22 1
  30   19   20 ar
  31   19   26 1
  32   20   21 ar
  33   20   35 1
  34   21   36 1
  35   22   23 1
  36   22   24 1
  37   22   25 1

#	End of record

