#	Name: ASD08151012
#	Creating user name:	WinNT
#	Creation time:	15. 06. 2019 21:16

#	Modifying user name:	WinNT
#	Modification time:	15. 06. 2019 21:16

#	Program:	/corina/corina34_cracker 3.40 0067  02.08.2006

@<TRIPOS>MOLECULE
ASD08151012
  35   37    0    0    0
SMALL
NO_CHARGES


@<TRIPOS>ATOM
   1 C1            -0.0187     1.5258     0.0104 C.3     
   2 C2             0.0021    -0.0041     0.0020 C.3     
   3 N3             4.1770     2.6212     2.2787 N.ar    
   4 C4             5.4077     3.0745     2.2707 C.ar    
   5 C5             6.0137     3.5269     1.1010 C.ar    
   6 C6             5.3224     3.5049    -0.0768 C.ar    
   7 C7             4.0015     3.0174    -0.0630 C.ar    
   8 C8             3.2313     2.9655    -1.2361 C.ar    
   9 C9             1.9556     2.4884    -1.1935 C.ar    
  10 C10            1.3951     2.0474    -0.0003 C.ar    
  11 C11            2.1200     2.0822     1.1776 C.ar    
  12 C12            3.4477     2.5731     1.1621 C.ar    
  13 C13            1.5121     1.6104     2.4436 C.ar    
  14 C14            2.0272     0.4882     3.0912 C.ar    
  15 C15            1.4569     0.0522     4.2725 C.ar    
  16 C16            0.3751     0.7280     4.8127 C.ar    
  17 C17           -0.1406     1.8431     4.1729 C.ar    
  18 C18            0.4267     2.2906     2.9944 C.ar    
  19 F19           -1.1963     2.4975     4.7042 F       
  20 F20            1.9551    -1.0351     4.9009 F       
  21 N21           -0.7292     2.0124    -1.1797 N.3     
  22 H22           -0.5289     1.8773     0.9072 H       
  23 H23            0.5293    -0.3651     0.8851 H       
  24 H24           -1.0205    -0.3814     0.0098 H       
  25 H25            0.5123    -0.3556    -0.8948 H       
  26 H26            5.9656     3.0978     3.1952 H       
  27 H27            7.0287     3.8950     1.1255 H       
  28 H28            5.7763     3.8521    -0.9933 H       
  29 H29            3.6503     3.3035    -2.1723 H       
  30 H30            1.3708     2.4527    -2.1007 H       
  31 H31            2.8702    -0.0398     2.6704 H       
  32 H32           -0.0680     0.3841     5.7357 H       
  33 H33            0.0270     3.1629     2.4988 H       
  34 H34           -0.2753     1.6996    -2.0248 H       
  35 H35           -1.6976     1.7297    -1.1634 H       
@<TRIPOS>BOND
   1    1    2 1
   2    1   10 1
   3    1   21 1
   4    1   22 1
   5    2   23 1
   6    2   24 1
   7    2   25 1
   8    3    4 ar
   9    3   12 ar
  10    4    5 ar
  11    4   26 1
  12    5    6 ar
  13    5   27 1
  14    6    7 ar
  15    6   28 1
  16    7    8 ar
  17    7   12 ar
  18    8    9 ar
  19    8   29 1
  20    9   10 ar
  21    9   30 1
  22   10   11 ar
  23   11   12 ar
  24   11   13 1
  25   13   14 ar
  26   13   18 ar
  27   14   15 ar
  28   14   31 1
  29   15   16 ar
  30   15   20 1
  31   16   17 ar
  32   16   32 1
  33   17   18 ar
  34   17   19 1
  35   18   33 1
  36   21   34 1
  37   21   35 1

#	End of record

