#	Name: ASD08150255
#	Creating user name:	WinNT
#	Creation time:	15. 06. 2019 21:15

#	Modifying user name:	WinNT
#	Modification time:	15. 06. 2019 21:15

#	Program:	/corina/corina34_cracker 3.40 0067  02.08.2006

@<TRIPOS>MOLECULE
ASD08150255
  52   56    0    0    0
SMALL
NO_CHARGES


@<TRIPOS>ATOM
   1 C1            -0.1460     1.7810    -0.5651 C.2     
   2 C2            -0.0669     0.2763    -0.5857 C.3     
   3 O3             0.7465     2.4420    -1.0526 O.2     
   4 N4            -1.2111     2.3923    -0.0098 N.am    
   5 C5            -1.2358     3.7872     0.1062 C.ar    
   6 C6            -2.4464     4.4749     0.0217 C.ar    
   7 C7            -2.4637     5.8568     0.1375 C.ar    
   8 C8            -1.2836     6.5484     0.3360 C.ar    
   9 C9            -0.0834     5.8668     0.4198 C.ar    
  10 C10           -0.0573     4.4891     0.3113 C.ar    
  11 N11           -5.1739     2.8903    -1.7141 N.2     
  12 C12           -4.0780     3.5333    -1.4462 C.2     
  13 N13           -3.6416     3.7716    -0.1801 N.am    
  14 C14           -4.3512     3.3350     0.8865 C.2     
  15 C15           -5.5970     2.6029     0.6168 C.ar    
  16 C16           -6.4004     2.1120     1.6444 C.ar    
  17 C17           -7.5583     1.4330     1.3352 C.ar    
  18 C18           -7.9289     1.2347     0.0113 C.ar    
  19 C19           -7.1495     1.7114    -1.0184 C.ar    
  20 C20           -5.9711     2.4033    -0.7307 C.ar    
  21 C21           -3.2480     4.0424    -2.5964 C.3     
  22 S22           -4.0452     3.5970    -4.1592 S.3     
  23 N23           -4.0649     3.6394    -7.4650 N.2     
  24 C24           -3.7700     3.8340    -8.7176 C.2     
  25 N25           -2.5999     4.5262    -8.8183 N.pl3   
  26 C26           -2.1543     4.7682    -7.5435 C.ar    
  27 N27           -1.0988     5.3828    -7.0190 N.ar    
  28 C28           -0.9433     5.4536    -5.7136 C.ar    
  29 N29           -1.8099     4.9290    -4.8670 N.ar    
  30 C30           -2.8961     4.2944    -5.2985 C.ar    
  31 C31           -3.1058     4.1926    -6.6848 C.ar    
  32 O32           -3.9722     3.5404     2.0250 O.2     
  33 C33           -6.0049     2.3221     3.0833 C.3     
  34 H34            0.8565    -0.0324    -1.0757 H       
  35 H35           -0.0799    -0.1023     0.4364 H       
  36 H36           -0.9201    -0.1250    -1.1325 H       
  37 H37           -1.9606     1.8657     0.3094 H       
  38 H38           -3.3991     6.3925     0.0721 H       
  39 H39           -1.2989     7.6246     0.4256 H       
  40 H40            0.8358     6.4121     0.5750 H       
  41 H41            0.8813     3.9595     0.3821 H       
  42 H42           -8.1833     1.0513     2.1290 H       
  43 H43           -8.8397     0.6994    -0.2130 H       
  44 H44           -7.4480     1.5510    -2.0438 H       
  45 H45           -3.1605     5.1268    -2.5293 H       
  46 H46           -2.2552     3.5944    -2.5544 H       
  47 H47           -4.3645     3.4969    -9.5539 H       
  48 H48           -2.1625     4.7977    -9.6404 H       
  49 H49           -0.0742     5.9600    -5.3205 H       
  50 H50           -6.3180     3.3155     3.4048 H       
  51 H51           -6.4879     1.5695     3.7065 H       
  52 H52           -4.9228     2.2335     3.1794 H       
@<TRIPOS>BOND
   1    1    2 1
   2    1    3 2
   3    1    4 am
   4    2   34 1
   5    2   35 1
   6    2   36 1
   7    4    5 1
   8    4   37 1
   9    5    6 ar
  10    5   10 ar
  11    6    7 ar
  12    6   13 1
  13    7    8 ar
  14    7   38 1
  15    8    9 ar
  16    8   39 1
  17    9   10 ar
  18    9   40 1
  19   10   41 1
  20   11   12 2
  21   11   20 1
  22   12   13 1
  23   12   21 1
  24   13   14 am
  25   14   15 1
  26   14   32 2
  27   15   16 ar
  28   15   20 ar
  29   16   17 ar
  30   16   33 1
  31   17   18 ar
  32   17   42 1
  33   18   19 ar
  34   18   43 1
  35   19   20 ar
  36   19   44 1
  37   21   22 1
  38   21   45 1
  39   21   46 1
  40   22   30 1
  41   23   24 2
  42   23   31 1
  43   24   25 1
  44   24   47 1
  45   25   26 1
  46   25   48 1
  47   26   27 ar
  48   26   31 ar
  49   27   28 ar
  50   28   29 ar
  51   28   49 1
  52   29   30 ar
  53   30   31 ar
  54   33   50 1
  55   33   51 1
  56   33   52 1

#	End of record

