#	Name: ASD07931999
#	Creating user name:	WinNT
#	Creation time:	15. 06. 2019 21:14

#	Modifying user name:	WinNT
#	Modification time:	15. 06. 2019 21:14

#	Program:	/corina/corina34_cracker 3.40 0067  02.08.2006

@<TRIPOS>MOLECULE
ASD07931999
  79   83    0    0    0
SMALL
NO_CHARGES


@<TRIPOS>ATOM
   1 N1             0.3331     1.3871    -0.2249 N.2     
   2 C2             0.7164    -0.0069    -0.3292 C.3     
   3 C3             2.0393    -0.2903     0.3890 C.3     
   4 S4             3.2401     0.9729    -0.1465 S.o2    
   5 N5             2.4258     2.3825     0.2097 N.am    
   6 C6             1.0694     2.4105    -0.0153 C.2     
   7 C7             3.1300     3.5507     0.7442 C.3     
   8 C8            -0.3657    -0.8602     0.2806 C.ar    
   9 C9             0.8636    -0.3737    -1.8073 C.3     
  10 C10           -1.4594    -0.2628     0.8807 C.ar    
  11 O11            4.3771     0.9865     0.7058 O.2     
  12 O12            3.3735     0.9795    -1.5612 O.2     
  13 C13           -0.2655    -2.2380     0.2339 C.ar    
  14 C14           -1.2680    -3.0279     0.7984 C.ar    
  15 C15           -2.3663    -2.4210     1.4070 C.ar    
  16 C16           -2.4577    -1.0396     1.4432 C.ar    
  17 F17            0.8011    -2.8191    -0.3577 F       
  18 F18           -3.3412    -3.1788     1.9554 F       
  19 F19           -3.5204    -0.4492     2.0326 F       
  20 C20           -1.1661    -4.5070     0.7508 C.ar    
  21 C21           -1.0291    -5.2369     1.9301 C.ar    
  22 C22           -0.9352    -6.6129     1.8799 C.ar    
  23 C23           -0.9768    -7.2676     0.6621 C.ar    
  24 C24           -1.1127    -6.5482    -0.5115 C.ar    
  25 C25           -1.2128    -5.1723    -0.4728 C.ar    
  26 S26           -0.8525    -9.0724     0.6041 Du      
  27 F27           -0.9719    -9.0290    -1.0009 F       
  28 F28            0.5944    -8.9953     1.3060 F       
  29 F29           -0.7419   -10.6778     0.5524 F       
  30 N30            0.4550     3.6405    -0.0151 N.pl3   
  31 C31           -0.4562     3.8357     4.3775 C.ar    
  32 C32           -0.3164     5.1926     4.6302 C.ar    
  33 C33           -0.3512     6.0986     3.5802 C.ar    
  34 C34           -0.5245     5.6477     2.2859 C.ar    
  35 C35           -0.6635     4.2949     2.0367 C.ar    
  36 C36           -0.6296     3.3899     3.0815 C.ar    
  37 C37           -0.8529     3.8059     0.6238 C.3     
  38 O38           -0.1461     5.6336     5.9044 O.3     
  39 C39           -0.0089     7.0439     6.0898 C.3     
  40 C40            0.6611     4.3627    -4.3780 C.ar    
  41 C41           -0.3831     5.2399    -4.6327 C.ar    
  42 C42           -0.9422     5.9695    -3.5936 C.ar    
  43 C43           -0.4585     5.8206    -2.3082 C.ar    
  44 C44            0.5823     4.9457    -2.0570 C.ar    
  45 C45            1.1415     4.2178    -3.0909 C.ar    
  46 C46            1.1083     4.7856    -0.6538 C.3     
  47 O47           -0.8571     5.3846    -5.8981 O.3     
  48 C48           -1.9336     6.3053    -6.0863 C.3     
  49 H49            1.8948    -0.2293     1.4677 H       
  50 H50            2.4013    -1.2824     0.1193 H       
  51 H51            3.5548     4.1265    -0.0781 H       
  52 H52            2.4298     4.1739     1.3005 H       
  53 H53            3.9293     3.2209     1.4077 H       
  54 H54            1.6300     0.2533    -2.2627 H       
  55 H55            1.1519    -1.4212    -1.8947 H       
  56 H56           -0.0864    -0.2146    -2.3175 H       
  57 H57           -1.5348     0.8141     0.9108 H       
  58 H58           -0.9961    -4.7267     2.8814 H       
  59 H59           -0.8286    -7.1796     2.7931 H       
  60 H60           -1.1443    -7.0645    -1.4596 H       
  61 H61           -1.3192    -4.6116    -1.3897 H       
  62 H62           -0.4250     3.1281     5.1928 H       
  63 H63           -0.2430     7.1555     3.7744 H       
  64 H64           -0.5517     6.3526     1.4681 H       
  65 H65           -0.7385     2.3337     2.8842 H       
  66 H66           -1.4416     4.5323     0.0637 H       
  67 H67           -1.3743     2.8487     0.6375 H       
  68 H68            0.1203     7.2600     7.1504 H       
  69 H69            0.8609     7.4000     5.5379 H       
  70 H70           -0.9033     7.5473     5.7227 H       
  71 H71            1.0951     3.7903    -5.1845 H       
  72 H72           -1.7549     6.6533    -3.7895 H       
  73 H73           -0.8934     6.3884    -1.4990 H       
  74 H74            1.9543     3.5350    -2.8921 H       
  75 H75            0.8982     5.6894    -0.0818 H       
  76 H76            2.1849     4.6182    -0.6863 H       
  77 H77           -2.7886     5.9920    -5.4873 H       
  78 H78           -1.6181     7.3015    -5.7761 H       
  79 H79           -2.2152     6.3249    -7.1391 H       
@<TRIPOS>BOND
   1    1    2 1
   2    1    6 2
   3    2    3 1
   4    2    8 1
   5    2    9 1
   6    3    4 1
   7    3   49 1
   8    3   50 1
   9    4    5 am
  10    4   11 2
  11    4   12 2
  12    5    6 1
  13    5    7 1
  14    6   30 1
  15    7   51 1
  16    7   52 1
  17    7   53 1
  18    8   13 ar
  19    8   10 ar
  20    9   54 1
  21    9   55 1
  22    9   56 1
  23   10   16 ar
  24   10   57 1
  25   13   14 ar
  26   13   17 1
  27   14   15 ar
  28   14   20 1
  29   15   16 ar
  30   15   18 1
  31   16   19 1
  32   20   21 ar
  33   20   25 ar
  34   21   22 ar
  35   21   58 1
  36   22   23 ar
  37   22   59 1
  38   23   24 ar
  39   23   26 1
  40   24   25 ar
  41   24   60 1
  42   25   61 1
  43   26   27 1
  44   26   28 1
  45   26   29 1
  46   30   37 1
  47   30   46 1
  48   31   32 ar
  49   31   36 ar
  50   31   62 1
  51   32   33 ar
  52   32   38 1
  53   33   34 ar
  54   33   63 1
  55   34   35 ar
  56   34   64 1
  57   35   36 ar
  58   35   37 1
  59   36   65 1
  60   37   66 1
  61   37   67 1
  62   38   39 1
  63   39   68 1
  64   39   69 1
  65   39   70 1
  66   40   41 ar
  67   40   45 ar
  68   40   71 1
  69   41   42 ar
  70   41   47 1
  71   42   43 ar
  72   42   72 1
  73   43   44 ar
  74   43   73 1
  75   44   45 ar
  76   44   46 1
  77   45   74 1
  78   46   75 1
  79   46   76 1
  80   47   48 1
  81   48   77 1
  82   48   78 1
  83   48   79 1

#	End of record

