#	Name: ASD01813207
#	Creating user name:	WinNT
#	Creation time:	15. 06. 2019 19:30

#	Modifying user name:	WinNT
#	Modification time:	15. 06. 2019 19:30

#	Program:	/corina/corina34_cracker 3.40 0067  02.08.2006

@<TRIPOS>MOLECULE
ASD01813207
  54   57    0    0    0
SMALL
NO_CHARGES


@<TRIPOS>ATOM
   1 C1            -0.7694     1.8494    -0.9588 C.2     
   2 C2            -0.3069    -3.1321    -2.1208 C.2     
   3 C3            -1.0917    -2.0558    -2.1427 C.2     
   4 C4            -1.7461    -1.5994    -0.9104 C.2     
   5 N5            -1.5833    -0.3052    -0.4974 N.am    
   6 C6            -0.7984     0.5632    -1.2518 C.2     
   7 C7            -2.5265    -2.4827    -0.1813 C.2     
   8 C8            -3.1473    -2.0568     0.9840 C.2     
   9 C9            -2.9735    -0.7347     1.4045 C.2     
  10 C10           -2.1724     0.1398     0.6284 C.2     
  11 O11           -2.0124     1.2948     0.9833 O.2     
  12 C12           -3.6182    -0.2562     2.6326 C.2     
  13 O13           -3.4457     1.0205     3.0313 O.3     
  14 O14           -4.3082    -1.0107     3.2908 O.2     
  15 C15           -2.7008    -3.9031    -0.6538 C.3     
  16 N16           -2.9908    -4.7696     0.4964 N.3     
  17 C17           -3.5089    -6.0715     0.0571 C.3     
  18 C18           -3.9353    -6.8905     1.2775 C.3     
  19 C19           -2.7302    -7.0853     2.2018 C.3     
  20 C20           -2.1800    -5.7147     2.6059 C.3     
  21 C21           -1.8045    -4.9298     1.3470 C.3     
  22 C22           -3.1575    -7.8398     3.4343 C.2     
  23 N23           -3.7029    -7.2738     4.5443 N.pl3   
  24 C24           -3.9551    -8.2925     5.4432 C.ar    
  25 C25           -3.5354    -9.4764     4.8142 C.ar    
  26 N26           -3.0637    -9.1283     3.5894 N.2     
  27 C27           -4.4942    -8.3398     6.7214 C.ar    
  28 C28           -4.6162    -9.5495     7.3703 C.ar    
  29 C29           -4.2024   -10.7242     6.7535 C.ar    
  30 C30           -3.6653   -10.6957     5.4851 C.ar    
  31 F31           -4.3275   -11.9025     7.4025 F       
  32 H32           -0.0506     2.4966    -1.4393 H       
  33 H33           -1.4674     2.2558    -0.2418 H       
  34 H34           -0.2334    -3.7286    -1.2235 H       
  35 H35            0.2557    -3.4082    -3.0004 H       
  36 H36           -1.2464    -1.5191    -3.0670 H       
  37 H37           -0.2134     0.1839    -2.0766 H       
  38 H38           -3.7576    -2.7377     1.5587 H       
  39 H39           -3.8903     1.2896     3.8468 H       
  40 H40           -3.5275    -3.9513    -1.3626 H       
  41 H41           -1.7851    -4.2392    -1.1401 H       
  42 H42           -4.3681    -5.9188    -0.5960 H       
  43 H43           -2.7307    -6.6075    -0.4861 H       
  44 H44           -4.7233    -6.3615     1.8136 H       
  45 H45           -4.3053    -7.8628     0.9521 H       
  46 H46           -1.9572    -7.6483     1.6787 H       
  47 H47           -2.9404    -5.1672     3.1629 H       
  48 H48           -1.2959    -5.8469     3.2296 H       
  49 H49           -1.0343    -5.4711     0.7977 H       
  50 H50           -1.4258    -3.9478     1.6307 H       
  51 H51           -3.8812    -6.3301     4.6800 H       
  52 H52           -4.8170    -7.4305     7.2065 H       
  53 H53           -5.0359    -9.5848     8.3648 H       
  54 H54           -3.3456   -11.6119     5.0110 H       
@<TRIPOS>BOND
   1    1    6 2
   2    1   32 1
   3    1   33 1
   4    2    3 2
   5    2   34 1
   6    2   35 1
   7    3    4 1
   8    3   36 1
   9    4    5 1
  10    4    7 2
  11    5    6 1
  12    5   10 am
  13    6   37 1
  14    7    8 1
  15    7   15 1
  16    8    9 2
  17    8   38 1
  18    9   10 1
  19    9   12 1
  20   10   11 2
  21   12   13 1
  22   12   14 2
  23   13   39 1
  24   15   16 1
  25   15   40 1
  26   15   41 1
  27   16   17 1
  28   16   21 1
  29   17   18 1
  30   17   42 1
  31   17   43 1
  32   18   19 1
  33   18   44 1
  34   18   45 1
  35   19   20 1
  36   19   22 1
  37   19   46 1
  38   20   21 1
  39   20   47 1
  40   20   48 1
  41   21   49 1
  42   21   50 1
  43   22   23 1
  44   22   26 2
  45   23   24 1
  46   23   51 1
  47   24   25 ar
  48   24   27 ar
  49   25   26 1
  50   25   30 ar
  51   27   28 ar
  52   27   52 1
  53   28   29 ar
  54   28   53 1
  55   29   30 ar
  56   29   31 1
  57   30   54 1

#	End of record

