#	Name: ASD08178042
#	Creating user name:	WinNT
#	Creation time:	15. 06. 2019 21:18

#	Modifying user name:	WinNT
#	Modification time:	15. 06. 2019 21:18

#	Program:	/corina/corina34_cracker 3.40 0067  02.08.2006

@<TRIPOS>MOLECULE
ASD08178042
  67   72    0    0    0
SMALL
NO_CHARGES


@<TRIPOS>ATOM
   1 N1            -0.0622     1.0161     0.1198 N.2     
   2 C2             0.0008    -0.2812     0.1065 C.2     
   3 N3            -1.0884    -1.1459     0.1229 N.am    
   4 N4             1.0259     1.6559     0.1006 N.2     
   5 C5             2.1122     0.9511     0.0692 C.2     
   6 S6             1.6478    -0.7506     0.0643 S.3     
   7 C7             3.5199     1.4884     0.0409 C.3     
   8 C8             4.0301     1.6573     1.4734 C.3     
   9 C9             6.1472     2.4336     3.1988 C.3     
  10 C10            7.5714     2.9741     3.3427 C.3     
  11 C11            7.9225     3.0817     4.8042 C.2     
  12 N12            8.4735     2.1593     5.5275 N.2     
  13 N13            8.6894     2.4444     6.7382 N.2     
  14 C14            8.3437     3.6268     7.1502 C.2     
  15 S15            7.6639     4.4893     5.8354 S.3     
  16 N16            8.5032     4.1134     8.4432 N.am    
  17 C17            9.0592     3.3348     9.3925 C.2     
  18 O18            9.4205     2.2098     9.1191 O.2     
  19 C19            9.2319     3.8621    10.7936 C.3     
  20 C20           -2.3414    -0.6508     0.1560 C.2     
  21 O21           -2.5193     0.5489     0.1714 O.2     
  22 C22           -3.5216    -1.5877     0.1739 C.3     
  23 C23           -4.8555    -0.7811     0.2117 C.3     
  24 S24            5.7246     2.3040     1.4395 S.3     
  25 C25           -3.5897    -2.3939    -1.1434 C.3     
  26 C26           -4.9582    -1.9984    -1.7773 C.3     
  27 C27           -6.0234    -2.6633    -0.8528 C.3     
  28 C28           -5.9553    -1.8572     0.4644 C.3     
  29 C29            7.9076     3.7036    11.6012 C.3     
  30 C30            7.4705     2.2283    11.3486 C.3     
  31 C31            8.5037     1.3768    12.1212 C.3     
  32 C32            9.4677     2.4178    12.7680 C.3     
  33 C33           10.2651     3.0106    11.5663 C.3     
  34 C34            8.4702     3.5933    13.0623 C.3     
  35 C35           -5.0691    -0.5017    -1.3179 C.3     
  36 H36           -0.9462    -2.1054     0.1106 H       
  37 H37            4.1642     0.7911    -0.4945 H       
  38 H38            3.5301     2.4541    -0.4646 H       
  39 H39            3.3857     2.3546     2.0088 H       
  40 H40            4.0199     0.6917     1.9790 H       
  41 H41            6.0840     1.4486     3.6611 H       
  42 H42            5.4499     3.1115     3.6910 H       
  43 H43            8.2687     2.2962     2.8504 H       
  44 H44            7.6346     3.9591     2.8803 H       
  45 H45            8.2142     5.0132     8.6619 H       
  46 H46            9.5399     4.9074    10.7701 H       
  47 H47           -3.4595    -2.2597     1.0299 H       
  48 H48           -4.8716     0.0821     0.8771 H       
  49 H49           -2.7695    -2.1125    -1.8038 H       
  50 H50           -3.5619    -3.4636    -0.9360 H       
  51 H51           -5.0638    -2.1953    -2.8442 H       
  52 H52           -7.0155    -2.5825    -1.2969 H       
  53 H53           -5.7708    -3.7081    -0.6723 H       
  54 H54           -5.6693    -2.5057     1.2925 H       
  55 H55           -6.9140    -1.3801     0.6679 H       
  56 H56            7.1466     4.4633    11.4225 H       
  57 H57            6.4678     2.0567    11.7401 H       
  58 H58            7.5083     1.9978    10.2839 H       
  59 H59            8.0090     0.7866    12.8926 H       
  60 H60            9.0494     0.7277    11.4364 H       
  61 H61           10.0655     2.0577    13.6053 H       
  62 H62           10.6481     2.2106    10.9327 H       
  63 H63           11.0821     3.6371    11.9244 H       
  64 H64            8.9881     4.5015    13.3705 H       
  65 H65            7.6989     3.3056    13.7767 H       
  66 H66           -6.0542    -0.0829    -1.5233 H       
  67 H67           -4.2729     0.1143    -1.7360 H       
@<TRIPOS>BOND
   1    1    2 2
   2    1    4 1
   3    2    3 1
   4    2    6 1
   5    3   20 am
   6    3   36 1
   7    4    5 2
   8    5    6 1
   9    5    7 1
  10    7    8 1
  11    7   37 1
  12    7   38 1
  13    8   24 1
  14    8   39 1
  15    8   40 1
  16    9   10 1
  17    9   24 1
  18    9   41 1
  19    9   42 1
  20   10   11 1
  21   10   43 1
  22   10   44 1
  23   11   12 2
  24   11   15 1
  25   12   13 1
  26   13   14 2
  27   14   15 1
  28   14   16 1
  29   16   17 am
  30   16   45 1
  31   17   18 2
  32   17   19 1
  33   19   29 1
  34   19   33 1
  35   19   46 1
  36   20   21 2
  37   20   22 1
  38   22   23 1
  39   22   25 1
  40   22   47 1
  41   23   28 1
  42   23   35 1
  43   23   48 1
  44   25   26 1
  45   25   49 1
  46   25   50 1
  47   26   27 1
  48   26   35 1
  49   26   51 1
  50   27   28 1
  51   27   52 1
  52   27   53 1
  53   28   54 1
  54   28   55 1
  55   29   30 1
  56   29   34 1
  57   29   56 1
  58   30   31 1
  59   30   57 1
  60   30   58 1
  61   31   32 1
  62   31   59 1
  63   31   60 1
  64   32   33 1
  65   32   34 1
  66   32   61 1
  67   33   62 1
  68   33   63 1
  69   34   64 1
  70   34   65 1
  71   35   66 1
  72   35   67 1

#	End of record

