#	Name: ASD02560046
#	Creating user name:	WinNT
#	Creation time:	15. 06. 2019 20:24

#	Modifying user name:	WinNT
#	Modification time:	15. 06. 2019 20:24

#	Program:	/corina/corina34_cracker 3.40 0067  02.08.2006

@<TRIPOS>MOLECULE
ASD02560046
  26   27    0    0    0
SMALL
NO_CHARGES


@<TRIPOS>ATOM
   1 C1            -0.0167     1.3789     0.0096 C.ar    
   2 C2             0.0021    -0.0041     0.0020 C.ar    
   3 N3             1.1675    -0.6365    -0.0125 N.ar    
   4 C4             2.3081     0.0383    -0.0198 C.ar    
   5 N5             2.3322     1.3633    -0.0125 N.ar    
   6 C6             1.2011     2.0614     0.0017 C.ar    
   7 N7             1.2303     3.4465     0.0088 N.pl3   
   8 Cl8           -1.4836    -0.9020     0.0120 Cl      
   9 S9             3.8306    -0.8484    -0.0391 S.3     
  10 C10            3.2052    -2.5469    -0.0422 C.3     
  11 C11            4.3648    -3.5092    -0.0585 C.ar    
  12 C12            4.9081    -3.9570     1.1312 C.ar    
  13 C13            5.9718    -4.8397     1.1163 C.ar    
  14 C14            6.4920    -5.2749    -0.0883 C.ar    
  15 C15            5.9481    -4.8279    -1.2779 C.ar    
  16 C16            4.8816    -3.9485    -1.2630 C.ar    
  17 H17           -0.9522     1.9185     0.0170 H       
  18 H18            2.0803     3.9137     0.0035 H       
  19 H19            0.4007     3.9491     0.0191 H       
  20 H20            2.6059    -2.7151     0.8526 H       
  21 H21            2.5889    -2.7055    -0.9272 H       
  22 H22            4.5017    -3.6170     2.0722 H       
  23 H23            6.3967    -5.1890     2.0457 H       
  24 H24            7.3235    -5.9640    -0.0999 H       
  25 H25            6.3547    -5.1676    -2.2190 H       
  26 H26            4.4566    -3.5993    -2.1924 H       
@<TRIPOS>BOND
   1    1    2 ar
   2    1    6 ar
   3    1   17 1
   4    2    3 ar
   5    2    8 1
   6    3    4 ar
   7    4    5 ar
   8    4    9 1
   9    5    6 ar
  10    6    7 1
  11    7   18 1
  12    7   19 1
  13    9   10 1
  14   10   11 1
  15   10   20 1
  16   10   21 1
  17   11   12 ar
  18   11   16 ar
  19   12   13 ar
  20   12   22 1
  21   13   14 ar
  22   13   23 1
  23   14   15 ar
  24   14   24 1
  25   15   16 ar
  26   15   25 1
  27   16   26 1

#	End of record

