#	Name: ASD01030033
#	Creating user name:	WinNT
#	Creation time:	15. 06. 2019 18:58

#	Modifying user name:	WinNT
#	Modification time:	15. 06. 2019 18:58

#	Program:	/corina/corina34_cracker 3.40 0067  02.08.2006

@<TRIPOS>MOLECULE
ASD01030033
  47   46    0    0    0
SMALL
NO_CHARGES


@<TRIPOS>ATOM
   1 P1            -1.0061     2.3044    -1.0507 P.3     
   2 O2            -1.4533     1.6513     0.1999 O.2     
   3 O3             0.5138     2.8072    -0.8797 O.3     
   4 O4            -1.0896     1.2513    -2.2656 O.3     
   5 O5            -1.9561     3.5652    -1.3671 O.3     
   6 C6             1.5812     1.9404    -0.4907 C.3     
   7 C7             2.8665     2.7244    -0.4253 C.2     
   8 C8             3.9592     2.2366    -0.9584 C.2     
   9 C9             3.9512     0.8564    -1.5635 C.3     
  10 C10            5.2242     3.0556    -0.9666 C.3     
  11 C11            6.0828     2.6799     0.2428 C.3     
  12 C12            7.3478     3.4989     0.2346 C.2     
  13 C13            7.6292     4.2796     1.2482 C.2     
  14 C14            6.6276     4.4624     2.3593 C.3     
  15 C15            8.9544     4.9951     1.3031 C.3     
  16 C16            8.7967     6.4052     0.7309 C.3     
  17 C17           10.1220     7.1207     0.7858 C.2     
  18 C18           10.6713     7.5674    -0.3164 C.2     
  19 C19           10.0480     7.2501    -1.6512 C.3     
  20 C20           11.9265     8.3987    -0.2494 C.3     
  21 H21           -0.8107     1.6118    -3.1185 H       
  22 H22           -2.8884     3.3360    -1.4825 H       
  23 H23            1.3649     1.5148     0.4892 H       
  24 H24            1.6820     1.1377    -1.2213 H       
  25 H25            2.8868     3.6884     0.0611 H       
  26 H26            3.6757     0.9228    -2.6161 H       
  27 H27            4.9439     0.4151    -1.4749 H       
  28 H28            3.2281     0.2332    -1.0373 H       
  29 H29            5.7801     2.8564    -1.8828 H       
  30 H30            4.9716     4.1148    -0.9179 H       
  31 H31            5.5269     2.8791     1.1590 H       
  32 H32            6.3354     1.6207     0.1941 H       
  33 H33            8.0224     3.4421    -0.6069 H       
  34 H34            6.7223     3.6432     3.0722 H       
  35 H35            6.8160     5.4087     2.8663 H       
  36 H36            5.6202     4.4673     1.9432 H       
  37 H37            9.2905     5.0584     2.3380 H       
  38 H38            9.6891     4.4446     0.7155 H       
  39 H39            8.4606     6.3419    -0.3040 H       
  40 H40            8.0621     6.9557     1.3185 H       
  41 H41           10.6188     7.2651     1.7338 H       
  42 H42            9.2491     7.9622    -1.8577 H       
  43 H43           10.8060     7.3181    -2.4316 H       
  44 H44            9.6381     6.2403    -1.6300 H       
  45 H45           12.7978     7.7454    -0.2959 H       
  46 H46           11.9477     9.0930    -1.0895 H       
  47 H47           11.9418     8.9589     0.6854 H       
@<TRIPOS>BOND
   1    1    2 2
   2    1    3 1
   3    1    4 1
   4    1    5 1
   5    3    6 1
   6    4   21 1
   7    5   22 1
   8    6    7 1
   9    6   23 1
  10    6   24 1
  11    7    8 2
  12    7   25 1
  13    8    9 1
  14    8   10 1
  15    9   26 1
  16    9   27 1
  17    9   28 1
  18   10   11 1
  19   10   29 1
  20   10   30 1
  21   11   12 1
  22   11   31 1
  23   11   32 1
  24   12   13 2
  25   12   33 1
  26   13   14 1
  27   13   15 1
  28   14   34 1
  29   14   35 1
  30   14   36 1
  31   15   16 1
  32   15   37 1
  33   15   38 1
  34   16   17 1
  35   16   39 1
  36   16   40 1
  37   17   18 2
  38   17   41 1
  39   18   19 1
  40   18   20 1
  41   19   42 1
  42   19   43 1
  43   19   44 1
  44   20   45 1
  45   20   46 1
  46   20   47 1

#	End of record

