#	Name: ASD01670032
#	Creating user name:	WinNT
#	Creation time:	15. 06. 2019 19:22

#	Modifying user name:	WinNT
#	Modification time:	15. 06. 2019 19:22

#	Program:	/corina/corina34_cracker 3.40 0067  02.08.2006

@<TRIPOS>MOLECULE
ASD01670032
  31   32    0    0    0
SMALL
NO_CHARGES


@<TRIPOS>ATOM
   1 C1            -2.0716     0.4675    -0.2533 C.3     
   2 C2            -0.8858    -0.4517    -0.1120 C.2     
   3 C3            -0.4492    -1.0205     1.0356 C.2     
   4 C4             0.6732    -1.7985     0.7310 C.2     
   5 C5             1.4783    -2.6100     1.7130 C.3     
   6 O6             0.9196    -2.4666     3.0204 O.3     
   7 N7             0.9030    -1.7008    -0.5537 N.2     
   8 N8            -0.0705    -0.8610    -1.1101 N.pl3   
   9 C9            -0.1782    -0.5051    -2.4618 C.ar    
  10 C10           -0.3176     0.8285    -2.8208 C.ar    
  11 C11           -0.4236     1.1761    -4.1536 C.ar    
  12 C12           -0.3909     0.1972    -5.1294 C.ar    
  13 C13           -0.2526    -1.1324    -4.7748 C.ar    
  14 C14           -0.1400    -1.4855    -3.4444 C.ar    
  15 C15            0.0179    -2.9338    -3.0592 C.3     
  16 N16           -1.2797    -3.4699    -2.6271 N.3     
  17 H17           -1.7354     1.5035    -0.2096 H       
  18 H18           -2.5612     0.2845    -1.2098 H       
  19 H19           -2.7757     0.2795     0.5572 H       
  20 H20           -0.8892    -0.8958     2.0140 H       
  21 H21            1.4558    -3.6600     1.4214 H       
  22 H22            2.5093    -2.2562     1.7177 H       
  23 H23            1.3885    -2.9630     3.7051 H       
  24 H24           -0.3436     1.5936    -2.0590 H       
  25 H25           -0.5324     2.2135    -4.4335 H       
  26 H26           -0.4740     0.4714    -6.1707 H       
  27 H27           -0.2281    -1.8948    -5.5392 H       
  28 H28            0.3776    -3.5010    -3.9178 H       
  29 H29            0.7353    -3.0165    -2.2428 H       
  30 H30           -1.9790    -3.3460    -3.3439 H       
  31 H31           -1.2003    -4.4405    -2.3633 H       
@<TRIPOS>BOND
   1    1    2 1
   2    1   17 1
   3    1   18 1
   4    1   19 1
   5    2    3 2
   6    2    8 1
   7    3    4 1
   8    3   20 1
   9    4    5 1
  10    4    7 2
  11    5    6 1
  12    5   21 1
  13    5   22 1
  14    6   23 1
  15    7    8 1
  16    8    9 1
  17    9   10 ar
  18    9   14 ar
  19   10   11 ar
  20   10   24 1
  21   11   12 ar
  22   11   25 1
  23   12   13 ar
  24   12   26 1
  25   13   14 ar
  26   13   27 1
  27   14   15 1
  28   15   16 1
  29   15   28 1
  30   15   29 1
  31   16   30 1
  32   16   31 1

#	End of record

