#	Name: ASD03330726
#	Creating user name:	WinNT
#	Creation time:	15. 06. 2019 20:37

#	Modifying user name:	WinNT
#	Modification time:	15. 06. 2019 20:37

#	Program:	/corina/corina34_cracker 3.40 0067  02.08.2006

@<TRIPOS>MOLECULE
ASD03330726
  68   70    0    0    0
SMALL
NO_CHARGES


@<TRIPOS>ATOM
   1 C1            -0.0021     1.3623    -0.1157 C.2     
   2 N2             0.0115     0.0107    -0.2043 N.pl3   
   3 C3             1.2713     1.7746     0.1255 C.2     
   4 N4             2.0595     0.6782     0.1412 N.2     
   5 C5             1.3177    -0.3817    -0.0688 C.2     
   6 C6             1.8101    -1.7748    -0.1460 C.ar    
   7 C7             1.7114     3.1659     0.3317 C.2     
   8 O8             0.9011     4.0720     0.2930 O.2     
   9 C9             3.4492     4.8172     0.7679 C.3     
  10 N10            3.0117     3.4341     0.5630 N.am    
  11 C11            4.9271     4.9454     0.3934 C.3     
  12 C12            5.1159     4.5632    -1.0760 C.3     
  13 C13            5.3840     6.3898     0.6074 C.3     
  14 C14            3.2632     5.1936     2.2152 C.2     
  15 O15            3.5993     6.4227     2.6375 O.3     
  16 O16            2.8116     4.3892     2.9955 O.2     
  17 C17           -1.1248    -0.9018    -0.3767 C.3     
  18 C18           -2.2549    -0.2211    -1.1491 C.3     
  19 C19           -3.1354     0.5872    -0.1835 C.3     
  20 N20           -2.3289     1.6169     0.4524 N.am    
  21 C21           -1.2238     2.2216    -0.3017 C.3     
  22 C22            5.7593     4.0114     1.2743 C.3     
  23 C23           -2.5921     2.0102     1.7144 C.2     
  24 C24            0.9900    -2.8306     0.2528 C.ar    
  25 C25            3.0942    -2.0384    -0.6234 C.ar    
  26 C26            3.5474    -3.3398    -0.6930 C.ar    
  27 C27            2.7314    -4.3820    -0.2906 C.ar    
  28 C28            1.4550    -4.1275     0.1783 C.ar    
  29 O29           -3.5092     1.5037     2.3298 O.2     
  30 O30           -1.8388     2.9644     2.2931 O.3     
  31 C31           -2.1797     3.3382     3.6541 C.3     
  32 C32           -2.0623     2.1137     4.5639 C.3     
  33 C33           -1.2211     4.4276     4.1390 C.3     
  34 C34           -3.6148     3.8672     3.6935 C.3     
  35 H35            2.8563     5.4825     0.1403 H       
  36 H36            3.6580     2.7114     0.5938 H       
  37 H37            4.5230     5.2285    -1.7036 H       
  38 H38            6.1688     4.6545    -1.3428 H       
  39 H39            4.7904     3.5341    -1.2285 H       
  40 H40            5.2495     6.6621     1.6542 H       
  41 H41            6.4369     6.4812     0.3406 H       
  42 H42            4.7911     7.0552    -0.0202 H       
  43 H43            3.4619     6.6177     3.5746 H       
  44 H44           -0.7961    -1.7843    -0.9255 H       
  45 H45           -1.4925    -1.2059     0.6032 H       
  46 H46           -1.8302     0.4477    -1.8978 H       
  47 H47           -2.8621    -0.9785    -1.6449 H       
  48 H48           -3.9502     1.0533    -0.7374 H       
  49 H49           -3.5448    -0.0766     0.5780 H       
  50 H50           -1.0279     3.2257     0.0745 H       
  51 H51           -1.4828     2.2686    -1.3595 H       
  52 H52            5.4339     2.9824     1.1219 H       
  53 H53            6.8122     4.1028     1.0075 H       
  54 H54            5.6248     4.2838     2.3211 H       
  55 H55           -0.0065    -2.6332     0.6194 H       
  56 H56            3.7320    -1.2257    -0.9382 H       
  57 H57            4.5411    -3.5452    -1.0627 H       
  58 H58            3.0907    -5.3989    -0.3473 H       
  59 H59            0.8229    -4.9454     0.4913 H       
  60 H60           -1.0399     1.7369     4.5358 H       
  61 H61           -2.3182     2.3943     5.5856 H       
  62 H62           -2.7452     1.3376     4.2184 H       
  63 H63           -1.3047     5.3000     3.4909 H       
  64 H64           -1.4770     4.7082     5.1607 H       
  65 H65           -0.1987     4.0508     4.1110 H       
  66 H66           -4.2977     3.0910     3.3480 H       
  67 H67           -3.8707     4.1478     4.7152 H       
  68 H68           -3.6984     4.7395     3.0453 H       
@<TRIPOS>BOND
   1    1    2 1
   2    1    3 2
   3    1   21 1
   4    2   17 1
   5    2    5 1
   6    3    4 1
   7    3    7 1
   8    4    5 2
   9    5    6 1
  10    6   25 ar
  11    6   24 ar
  12    7    8 2
  13    7   10 am
  14    9   10 1
  15    9   11 1
  16    9   14 1
  17    9   35 1
  18   10   36 1
  19   11   12 1
  20   11   13 1
  21   11   22 1
  22   12   37 1
  23   12   38 1
  24   12   39 1
  25   13   40 1
  26   13   41 1
  27   13   42 1
  28   14   15 1
  29   14   16 2
  30   15   43 1
  31   17   18 1
  32   17   44 1
  33   17   45 1
  34   18   19 1
  35   18   46 1
  36   18   47 1
  37   19   20 1
  38   19   48 1
  39   19   49 1
  40   20   21 1
  41   20   23 am
  42   21   50 1
  43   21   51 1
  44   22   52 1
  45   22   53 1
  46   22   54 1
  47   23   29 2
  48   23   30 1
  49   24   28 ar
  50   24   55 1
  51   25   26 ar
  52   25   56 1
  53   26   27 ar
  54   26   57 1
  55   27   28 ar
  56   27   58 1
  57   28   59 1
  58   30   31 1
  59   31   32 1
  60   31   33 1
  61   31   34 1
  62   32   60 1
  63   32   61 1
  64   32   62 1
  65   33   63 1
  66   33   64 1
  67   33   65 1
  68   34   66 1
  69   34   67 1
  70   34   68 1

#	End of record

