#	Name: ASD00844852
#	Creating user name:	WinNT
#	Creation time:	15. 06. 2019 18:51

#	Modifying user name:	WinNT
#	Modification time:	15. 06. 2019 18:51

#	Program:	/corina/corina34_cracker 3.40 0067  02.08.2006

@<TRIPOS>MOLECULE
ASD00844852
 102  107    0    0    0
SMALL
NO_CHARGES


@<TRIPOS>ATOM
   1 F1             5.6628    -2.3378    -1.9032 F       
   2 C2             0.8048     1.2057    -0.3155 C.ar    
   3 C3             1.0099    -0.1342    -0.6098 C.ar    
   4 C4             0.8355    -1.0936     0.3773 C.ar    
   5 C5             0.4584    -0.7124     1.6502 C.ar    
   6 C6             0.2541     0.6240     1.9410 C.ar    
   7 C7             0.4276     1.5818     0.9594 C.ar    
   8 C8             1.0570    -2.5502     0.0608 C.3     
   9 C9             0.6808    -3.4134     1.2460 C.2     
  10 C10            0.2524    -2.9570    -1.1753 C.3     
  11 C11           -1.1989    -2.6082    -0.9672 C.2     
  12 N12           -2.1177    -2.9730    -1.8832 N.am    
  13 O13           -1.5400    -1.9992     0.0247 O.2     
  14 C14           -3.5198    -2.5472    -1.7570 C.3     
  15 C15           -3.9592    -1.9193    -3.0840 C.3     
  16 N16           -3.6921    -2.8607    -4.1797 N.3     
  17 C17           -2.2541    -3.1299    -4.3122 C.3     
  18 C18           -1.7436    -3.8023    -3.0388 C.3     
  19 C19           -4.2546    -2.3694    -5.4447 C.3     
  20 C20           -3.8512    -3.3101    -6.5835 C.3     
  21 C21           -4.4900    -2.8274    -7.8878 C.3     
  22 N22           -5.9509    -2.8065    -7.7404 N.3     
  23 C23           -6.3647    -1.8741    -6.6841 C.3     
  24 C24           -5.7819    -2.3283    -5.3439 C.3     
  25 C25           -6.6040    -2.4810    -9.0153 C.3     
  26 O26           -0.4168    -3.4985     1.7551 O.2     
  27 N27            1.7900    -4.0680     1.6280 N.am    
  28 C28            2.5285    -2.8293    -0.1462 C.ar    
  29 C29            2.8930    -3.7485     0.8324 C.ar    
  30 C30            3.4481    -2.3582    -1.0571 C.ar    
  31 C31            4.7595    -2.7980    -1.0102 C.ar    
  32 C32            5.1440    -3.7220    -0.0333 C.ar    
  33 C33            4.2079    -4.1953     0.8857 C.ar    
  34 C34            1.4751    -6.7299     2.2521 C.ar    
  35 C35            0.2202    -6.9907     1.7207 C.ar    
  36 C36            2.4381    -7.7210     2.2716 C.ar    
  37 C37            2.1542    -8.9733     1.7618 C.ar    
  38 C38            0.9004    -9.2391     1.2291 C.ar    
  39 C39           -0.0673    -8.2469     1.2089 C.ar    
  40 O40            0.6217   -10.4712     0.7283 O.3     
  41 O41           -0.7265    -6.0159     1.7022 O.3     
  42 C42            1.6661   -11.4450     0.7823 C.3     
  43 C43           -1.9958    -6.3548     1.1401 C.3     
  44 C44           -2.9237    -5.1402     1.2066 C.3     
  45 C45           -8.1114    -2.7107    -8.8894 C.3     
  46 C46           -8.7916    -2.3718   -10.2173 C.3     
  47 O47            1.3805    -0.5068    -1.8631 O.3     
  48 C48            1.4551     0.5233    -2.8507 C.3     
  49 C49            1.9753    -0.0655    -4.1636 C.3     
  50 F50            3.2072    -0.6893    -3.9390 F       
  51 F51            1.0588    -1.0044    -4.6491 F       
  52 S52            1.8436    -5.1318     2.8961 S.o2    
  53 O53            3.1971    -5.1749     3.3267 O.2     
  54 O54            0.7653    -4.7869     3.7550 O.2     
  55 C55            6.4987    -4.1827     0.0228 C.1     
  56 N56            7.5734    -4.5481     0.0673 N.1     
  57 H57            0.9442     1.9547    -1.0809 H       
  58 H58            0.3226    -1.4587     2.4189 H       
  59 H59           -0.0415     0.9200     2.9368 H       
  60 H60            0.2674     2.6249     1.1890 H       
  61 H61            0.6324    -2.4250    -2.0475 H       
  62 H62            0.3487    -4.0310    -1.3343 H       
  63 H63           -4.1464    -3.4113    -1.5356 H       
  64 H64           -3.6088    -1.8123    -0.9570 H       
  65 H65           -5.0259    -1.6983    -3.0463 H       
  66 H66           -3.4022    -0.9977    -3.2524 H       
  67 H67           -2.0842    -3.7869    -5.1652 H       
  68 H68           -1.7208    -2.1914    -4.4635 H       
  69 H69           -0.6590    -3.8998    -3.0858 H       
  70 H70           -2.1985    -4.7876    -2.9374 H       
  71 H71           -3.8749    -1.3680    -5.6476 H       
  72 H72           -2.7663    -3.3107    -6.6881 H       
  73 H73           -4.1965    -4.3198    -6.3611 H       
  74 H74           -4.1336    -1.8231    -8.1168 H       
  75 H75           -4.2164    -3.5032    -8.6980 H       
  76 H76           -5.9995    -0.8742    -6.9187 H       
  77 H77           -7.4526    -1.8575    -6.6200 H       
  78 H78           -6.1575    -3.3225    -5.1019 H       
  79 H79           -6.0763    -1.6274    -4.5627 H       
  80 H80           -6.4152    -1.4367    -9.2641 H       
  81 H81           -6.2036    -3.1202    -9.8022 H       
  82 H82            3.1452    -1.6447    -1.8092 H       
  83 H83            4.5053    -4.9089     1.6400 H       
  84 H84            3.4143    -7.5161     2.6856 H       
  85 H85            2.9087    -9.7459     1.7775 H       
  86 H86           -1.0436    -8.4519     0.7951 H       
  87 H87            2.5264   -11.0868     0.2169 H       
  88 H88            1.9562   -11.6095     1.8200 H       
  89 H89            1.3124   -12.3815     0.3511 H       
  90 H90           -1.8643    -6.6551     0.1006 H       
  91 H91           -2.4344    -7.1784     1.7035 H       
  92 H92           -2.4851    -4.3166     0.6432 H       
  93 H93           -3.8920    -5.3987     0.7779 H       
  94 H94           -3.0552    -4.8399     2.2462 H       
  95 H95           -8.3002    -3.7550    -8.6406 H       
  96 H96           -8.5118    -2.0716    -8.1025 H       
  97 H97           -9.8655    -2.5355   -10.1275 H       
  98 H98           -8.6028    -1.3275   -10.4661 H       
  99 H99           -8.3912    -3.0109   -11.0042 H       
 100 H100           0.4632     0.9464    -3.0101 H       
 101 H101           2.1331     1.3055    -2.5094 H       
 102 H102           2.1002     0.7325    -4.8954 H       
@<TRIPOS>BOND
   1    1   31 1
   2    2    3 ar
   3    2    7 ar
   4    2   57 1
   5    3    4 ar
   6    3   47 1
   7    4    5 ar
   8    4    8 1
   9    5    6 ar
  10    5   58 1
  11    6    7 ar
  12    6   59 1
  13    7   60 1
  14    8    9 1
  15    8   10 1
  16    8   28 1
  17    9   26 2
  18    9   27 am
  19   10   11 1
  20   10   61 1
  21   10   62 1
  22   11   12 am
  23   11   13 2
  24   12   14 1
  25   12   18 1
  26   14   15 1
  27   14   63 1
  28   14   64 1
  29   15   16 1
  30   15   65 1
  31   15   66 1
  32   16   17 1
  33   16   19 1
  34   17   18 1
  35   17   67 1
  36   17   68 1
  37   18   69 1
  38   18   70 1
  39   19   20 1
  40   19   24 1
  41   19   71 1
  42   20   21 1
  43   20   72 1
  44   20   73 1
  45   21   22 1
  46   21   74 1
  47   21   75 1
  48   22   23 1
  49   22   25 1
  50   23   24 1
  51   23   76 1
  52   23   77 1
  53   24   78 1
  54   24   79 1
  55   25   45 1
  56   25   80 1
  57   25   81 1
  58   27   52 am
  59   27   29 1
  60   28   29 ar
  61   28   30 ar
  62   29   33 ar
  63   30   31 ar
  64   30   82 1
  65   31   32 ar
  66   32   33 ar
  67   32   55 1
  68   33   83 1
  69   34   35 ar
  70   34   36 ar
  71   34   52 1
  72   35   41 1
  73   35   39 ar
  74   36   37 ar
  75   36   84 1
  76   37   38 ar
  77   37   85 1
  78   38   39 ar
  79   38   40 1
  80   39   86 1
  81   40   42 1
  82   41   43 1
  83   42   87 1
  84   42   88 1
  85   42   89 1
  86   43   44 1
  87   43   90 1
  88   43   91 1
  89   44   92 1
  90   44   93 1
  91   44   94 1
  92   45   46 1
  93   45   95 1
  94   45   96 1
  95   46   97 1
  96   46   98 1
  97   46   99 1
  98   47   48 1
  99   48   49 1
 100   48  100 1
 101   48  101 1
 102   49   50 1
 103   49   51 1
 104   49  102 1
 105   52   53 2
 106   52   54 2
 107   55   56 3

#	End of record

