#	Name: ASD01900560
#	Creating user name:	WinNT
#	Creation time:	15. 06. 2019 19:52

#	Modifying user name:	WinNT
#	Modification time:	15. 06. 2019 19:52

#	Program:	/corina/corina34_cracker 3.40 0067  02.08.2006

@<TRIPOS>MOLECULE
ASD01900560
  50   53    0    0    0
SMALL
NO_CHARGES


@<TRIPOS>ATOM
   1 C1             0.9850     3.1569     0.7507 C.ar    
   2 C2             2.0487     3.6068     1.5302 C.ar    
   3 C3             3.2477     2.9129     1.4977 C.ar    
   4 C4             3.3417     1.7926     0.6865 C.ar    
   5 C5             2.2432     1.4021    -0.0622 C.ar    
   6 N6             1.1166     2.0791    -0.0127 N.ar    
   7 C7            -0.3053     3.8839     0.7789 C.2     
   8 O8            -0.4328     4.8684     1.4799 O.2     
   9 N9            -1.3378     3.4535     0.0271 N.am    
  10 C10           -2.5849     4.0804     0.1267 C.ar    
  11 C11           -2.6583     5.4515     0.3376 C.ar    
  12 C12           -3.8894     6.0698     0.4354 C.ar    
  13 C13           -5.0541     5.3200     0.3227 C.ar    
  14 C14           -4.9801     3.9503     0.1121 C.ar    
  15 C15           -3.7494     3.3328     0.0090 C.ar    
  16 Cl16          -3.9820     7.7831     0.6994 Cl      
  17 C17           -6.9726     6.1163     1.5699 C.2     
  18 N18           -8.1471     6.7481     1.3936 N.am    
  19 C19           -8.2627     7.0279    -0.0480 C.3     
  20 C20           -6.9828     6.4570    -0.6255 C.2     
  21 N21           -6.3054     5.9481     0.4225 N.am    
  22 O22           -6.6400     6.4575    -1.7885 O.2     
  23 O23           -6.5611     5.7445     2.6514 O.2     
  24 C24           -9.4830     6.3181    -0.6380 C.3     
  25 C25           -8.3413     8.5351    -0.2993 C.3     
  26 C26           -9.4966     9.1140     0.4762 C.ar    
  27 C27           -9.3027     9.5729     1.7656 C.ar    
  28 C28          -10.3624    10.1039     2.4769 C.ar    
  29 C29          -11.6159    10.1764     1.8986 C.ar    
  30 C30          -11.8096     9.7184     0.6088 C.ar    
  31 C31          -10.7489     9.1913    -0.1040 C.ar    
  32 H32            1.9403     4.4842     2.1506 H       
  33 H33            4.0900     3.2376     2.0905 H       
  34 H34            4.2622     1.2299     0.6384 H       
  35 H35            2.3130     0.5300    -0.6955 H       
  36 H36           -1.2164     2.7092    -0.5830 H       
  37 H37           -1.7530     6.0337     0.4254 H       
  38 H38           -5.8853     3.3679     0.0246 H       
  39 H39           -3.6923     2.2675    -0.1593 H       
  40 H40           -8.7922     6.9749     2.0816 H       
  41 H41          -10.3862     6.6780    -0.1452 H       
  42 H42           -9.5438     6.5271    -1.7060 H       
  43 H43           -9.3883     5.2433    -0.4829 H       
  44 H44           -7.4135     9.0064     0.0250 H       
  45 H45           -8.4896     8.7188    -1.3634 H       
  46 H46           -8.3234     9.5163     2.2175 H       
  47 H47          -10.2111    10.4618     3.4846 H       
  48 H48          -12.4440    10.5907     2.4546 H       
  49 H49          -12.7889     9.7747     0.1571 H       
  50 H50          -10.8994     8.8368    -1.1130 H       
@<TRIPOS>BOND
   1    1    2 ar
   2    1    6 ar
   3    1    7 1
   4    2    3 ar
   5    2   32 1
   6    3    4 ar
   7    3   33 1
   8    4    5 ar
   9    4   34 1
  10    5    6 ar
  11    5   35 1
  12    7    8 2
  13    7    9 am
  14    9   10 1
  15    9   36 1
  16   10   11 ar
  17   10   15 ar
  18   11   12 ar
  19   11   37 1
  20   12   13 ar
  21   12   16 1
  22   13   14 ar
  23   13   21 1
  24   14   15 ar
  25   14   38 1
  26   15   39 1
  27   17   18 am
  28   17   21 am
  29   17   23 2
  30   18   19 1
  31   18   40 1
  32   19   20 1
  33   19   24 1
  34   19   25 1
  35   20   21 am
  36   20   22 2
  37   24   41 1
  38   24   42 1
  39   24   43 1
  40   25   26 1
  41   25   44 1
  42   25   45 1
  43   26   27 ar
  44   26   31 ar
  45   27   28 ar
  46   27   46 1
  47   28   29 ar
  48   28   47 1
  49   29   30 ar
  50   29   48 1
  51   30   31 ar
  52   30   49 1
  53   31   50 1

#	End of record

