#	Name: ASD01913049
#	Creating user name:	WinNT
#	Creation time:	15. 06. 2019 20:00

#	Modifying user name:	WinNT
#	Modification time:	15. 06. 2019 20:00

#	Program:	/corina/corina34_cracker 3.40 0067  02.08.2006

@<TRIPOS>MOLECULE
ASD01913049
  44   47    0    0    0
SMALL
NO_CHARGES


@<TRIPOS>ATOM
   1 C1            -0.0627     2.2377     1.7225 C.ar    
   2 C2            -0.0109     0.9975     1.1088 C.ar    
   3 C3            -1.1805     0.3379     0.7801 C.ar    
   4 C4            -2.4135     0.9250     1.0682 C.ar    
   5 C5            -2.4583     2.1735     1.6861 C.ar    
   6 C6            -1.2858     2.8210     2.0148 C.ar    
   7 C7            -3.6721     0.2227     0.7176 C.2     
   8 N8            -4.9293     0.6705     0.9368 N.2     
   9 C9            -5.7213    -0.2631     0.4717 C.2     
  10 O10           -4.9421    -1.2368    -0.0095 O.3     
  11 N11           -3.7740    -0.9432     0.1334 N.2     
  12 C12           -7.2281    -0.2434     0.4778 C.3     
  13 C13           -7.7460    -0.3275    -0.9598 C.3     
  14 C14           -9.2755    -0.2745    -0.9569 C.3     
  15 C15           -9.8224    -1.4729    -0.1750 C.3     
  16 N16           -9.2163    -1.4809     1.1634 N.am    
  17 C17           -7.7519    -1.4415     1.2759 C.3     
  18 C18           -9.9890    -1.5236     2.2669 C.2     
  19 C19          -11.4601    -1.4784     2.1407 C.ar    
  20 O20           -9.4752    -1.5993     3.3660 O.2     
  21 C21          -12.1151    -2.3448     1.2629 C.ar    
  22 C22          -13.4880    -2.2987     1.1494 C.ar    
  23 C23          -14.2186    -1.3942     1.9048 C.ar    
  24 C24          -13.5734    -0.5314     2.7775 C.ar    
  25 C25          -12.2013    -0.5730     2.9030 C.ar    
  26 F26          -15.5641    -1.3532     1.7897 F       
  27 F27           -1.1301    -0.8719     0.1809 F       
  28 F28            1.0826     2.8788     2.0426 F       
  29 H29            0.9443     0.5451     0.8863 H       
  30 H30           -3.4101     2.6317     1.9107 H       
  31 H31           -1.3205     3.7885     2.4936 H       
  32 H32           -7.5780     0.6812     0.9370 H       
  33 H33           -7.3547     0.5107    -1.5364 H       
  34 H34           -7.4160    -1.2635    -1.4105 H       
  35 H35           -9.6065     0.6501    -0.4840 H       
  36 H36           -9.6427    -0.3109    -1.9825 H       
  37 H37          -10.9053    -1.3872    -0.0852 H       
  38 H38           -9.5689    -2.3959    -0.6965 H       
  39 H39           -7.3295    -2.3619     0.8728 H       
  40 H40           -7.4687    -1.3350     2.3231 H       
  41 H41          -11.5469    -3.0495     0.6738 H       
  42 H42          -13.9955    -2.9681     0.4706 H       
  43 H43          -14.1472     0.1714     3.3633 H       
  44 H44          -11.6997     0.0993     3.5833 H       
@<TRIPOS>BOND
   1    1    2 ar
   2    1   28 1
   3    1    6 ar
   4    2    3 ar
   5    2   29 1
   6    3    4 ar
   7    3   27 1
   8    4    5 ar
   9    4    7 1
  10    5    6 ar
  11    5   30 1
  12    6   31 1
  13    7    8 1
  14    7   11 2
  15    8    9 2
  16    9   10 1
  17    9   12 1
  18   10   11 1
  19   12   13 1
  20   12   17 1
  21   12   32 1
  22   13   14 1
  23   13   33 1
  24   13   34 1
  25   14   15 1
  26   14   35 1
  27   14   36 1
  28   15   16 1
  29   15   37 1
  30   15   38 1
  31   16   17 1
  32   16   18 am
  33   17   39 1
  34   17   40 1
  35   18   19 1
  36   18   20 2
  37   19   21 ar
  38   19   25 ar
  39   21   22 ar
  40   21   41 1
  41   22   23 ar
  42   22   42 1
  43   23   24 ar
  44   23   26 1
  45   24   25 ar
  46   24   43 1
  47   25   44 1

#	End of record

