#	Name: ASD06300006
#	Creating user name:	WinNT
#	Creation time:	15. 06. 2019 21:05

#	Modifying user name:	WinNT
#	Modification time:	15. 06. 2019 21:05

#	Program:	/corina/corina34_cracker 3.40 0067  02.08.2006

@<TRIPOS>MOLECULE
ASD06300006
 293  295    0    0    0
SMALL
NO_CHARGES


@<TRIPOS>ATOM
   1 C1             5.0921     4.8080     6.2712 C.3     
   2 C2            11.5530   -51.3535    22.2670 C.3     
   3 C3             4.6921     2.5917     8.4671 C.3     
   4 C4             5.6987     2.7123     7.3212 C.3     
   5 C5             6.1882     1.3400     6.9361 C.2     
   6 N6             5.0502     3.3435     6.1641 N.3     
   7 O7             6.0139     0.9284     5.8086 O.2     
   8 C8             8.6772    -0.6495     6.8232 C.3     
   9 C9             7.2954    -0.7638     7.4700 C.3     
  10 C10            7.3869    -1.6284     8.7010 C.2     
  11 N11            6.8196     0.5702     7.8445 N.am    
  12 O12            7.0844    -1.1748     9.7844 O.2     
  13 C13            8.5622     0.1232     5.5077 C.3     
  14 C14            9.9441     0.2375     4.8609 C.3     
  15 C15            9.8291     1.0103     3.5454 C.3     
  16 N16           11.1558     1.1200     2.9244 N.3     
  17 C17            7.8937    -3.7460     9.7946 C.3     
  18 C18            8.9073    -4.8378     9.5674 C.2     
  19 N19            7.8048    -2.9055     8.5979 N.am    
  20 O20            9.4972    -4.9071     8.5100 O.2     
  21 C21            4.7981    -2.6809     9.4328 C.ar    
  22 C22            3.8939    -1.6852     9.7519 C.ar    
  23 C23            3.7330    -1.2934    11.0677 C.ar    
  24 C24            4.4760    -1.8976    12.0646 C.ar    
  25 C25            5.3806    -2.8930    11.7455 C.ar    
  26 C26            5.5415    -3.2848    10.4296 C.ar    
  27 C27            6.5269    -4.3706    10.0819 C.3     
  28 C28           11.5421    -6.2727    10.6469 C.3     
  29 C29           10.1434    -6.7987    10.3184 C.3     
  30 C30            9.8260    -7.9721    11.2092 C.2     
  31 N31            9.1581    -5.7373    10.5393 N.am    
  32 O32            8.8708    -7.9262    11.9552 O.2     
  33 C33           11.9143    -5.1634     9.6611 C.3     
  34 C34           13.2919    -4.6452     9.9847 C.2     
  35 O35           13.9124    -5.1150    10.9089 O.2     
  36 O36           13.8297    -3.6618     9.2461 O.3     
  37 C37            9.2569   -11.1057    11.3601 C.3     
  38 C38           10.2950   -10.2130    12.0430 C.3     
  39 C39           11.5512   -11.0063    12.2956 C.2     
  40 N40           10.6036    -9.0724    11.1770 N.am    
  41 O41           12.6009   -10.6535    11.8010 O.2     
  42 N42            5.6422   -10.4975    10.3956 N.pl3   
  43 C43            4.5561   -11.1008     9.8069 C.2     
  44 N44            3.4348   -10.4476     9.6843 N.2     
  45 N45            4.6527   -12.3929     9.3475 N.pl3   
  46 C46            7.9407   -10.3390    11.2162 C.3     
  47 C47            6.9025   -11.2316    10.5334 C.3     
  48 C48           13.5375   -12.4197    14.4002 C.3     
  49 C49           12.7033   -12.9403    13.2280 C.3     
  50 C50           12.2914   -14.3646    13.4980 C.2     
  51 N51           11.5082   -12.1077    13.0712 N.am    
  52 O52           11.1383   -14.6205    13.7734 O.2     
  53 C53           14.8641   -13.1796    14.4593 C.3     
  54 C54           15.7111   -12.8228    13.2361 C.3     
  55 C55           15.6181   -12.7910    15.7326 C.3     
  56 C56           12.2215   -17.3981    12.5187 C.3     
  57 C57           12.8184   -16.7292    13.7585 C.3     
  58 C58           14.0333   -17.4989    14.2088 C.2     
  59 N59           13.2044   -15.3539    13.4334 N.am    
  60 O60           15.1150   -16.9524    14.2536 O.2     
  61 C61           10.9194   -16.6921    12.1353 C.3     
  62 C62           10.3315   -17.3509    10.9141 C.2     
  63 O63           10.8981   -18.2924    10.4009 O.2     
  64 N64            9.1759   -16.8939    10.3922 N.am    
  65 C65           15.3261   -19.3079    16.4939 C.3     
  66 C66           15.0987   -19.5427    14.9993 C.3     
  67 C67           14.8832   -21.0130    14.7487 C.2     
  68 N68           13.9177   -18.7945    14.5616 N.am    
  69 O69           13.8453   -21.3980    14.2534 O.2     
  70 O70           14.2345   -19.8580    17.2340 O.3     
  71 C71           15.4207   -17.8052    16.7656 C.3     
  72 C72           16.0213   -23.6632    13.3895 C.3     
  73 C73           15.6344   -23.3294    14.8317 C.3     
  74 C74           16.4891   -24.1310    15.7793 C.2     
  75 N75           15.8439   -21.9001    15.0752 N.am    
  76 O76           17.2464   -23.5653    16.5392 O.2     
  77 C77           15.0638   -22.9562    12.4280 C.3     
  78 C78           17.4521   -23.1914    13.1231 C.3     
  79 C79           16.7208   -26.3691    18.0385 C.3     
  80 C80           17.3125   -26.2600    16.6318 C.3     
  81 C81           17.4794   -27.6395    16.0487 C.2     
  82 N82           16.4118   -25.4766    15.7825 N.am    
  83 O83           16.9028   -27.9389    15.0245 O.2     
  84 O84           15.5041   -27.1169    17.9868 O.3     
  85 C85           16.4353   -24.9675    18.5818 C.3     
  86 C86           19.7242   -30.4990    16.4909 C.3     
  87 C87           18.3511   -29.9123    16.1571 C.3     
  88 C88           17.2768   -30.7510    16.8001 C.2     
  89 N89           18.2695   -28.5407    16.6652 N.am    
  90 O90           16.5176   -30.2521    17.6037 O.2     
  91 C91           20.7893   -29.7447    15.7375 C.2     
  92 N92           22.0744   -30.1450    15.8055 N.am    
  93 O93           20.4901   -28.7773    15.0700 O.2     
  94 C94           14.8093   -32.7138    16.3255 C.3     
  95 C95           16.1151   -32.8708    17.1073 C.3     
  96 C96           16.5350   -34.3181    17.0985 C.2     
  97 N97           17.1595   -32.0555    16.4822 N.am    
  98 O98           17.6017   -34.6371    16.6174 O.2     
  99 C99           14.3248   -31.2912    16.4372 C.ar    
 100 C100          14.7256   -30.3506    15.5064 C.ar    
 101 C101          14.2829   -29.0458    15.6066 C.ar    
 102 C102          13.4355   -28.6797    16.6422 C.ar    
 103 C103          13.0348   -29.6254    17.5748 C.ar    
 104 C104          13.4758   -30.9301    17.4670 C.ar    
 105 O105          12.9989   -27.3967    16.7432 O.3     
 106 C106          16.1334   -36.6648    17.6166 C.3     
 107 C107          14.9098   -37.5432    17.6643 C.2     
 108 N108          15.7252   -35.2579    17.6252 N.am    
 109 O109          13.8055   -37.0432    17.7017 O.2     
 110 C110          18.3683   -34.8868    19.2573 C.ar    
 111 C111          19.5429   -34.1648    19.1570 C.ar    
 112 C112          20.6419   -34.7170    18.5262 C.ar    
 113 C113          20.5666   -35.9915    17.9960 C.ar    
 114 C114          19.3919   -36.7132    18.0958 C.ar    
 115 C115          18.2928   -36.1610    18.7267 C.ar    
 116 C116          17.0125   -36.9482    18.8364 C.3     
 117 C117          13.5730   -40.0840    16.1217 C.3     
 118 C118          13.8549   -39.7382    17.5853 C.3     
 119 C119          14.0942   -41.0061    18.3639 C.2     
 120 N120          15.0427   -38.8844    17.6653 N.am    
 121 O121          15.1559   -41.1833    18.9227 O.2     
 122 C122          13.1754   -38.8148    15.3653 C.3     
 123 C123          14.8303   -40.6827    15.4879 C.3     
 124 C124          15.1192   -42.0466    16.1182 C.3     
 125 C125          12.9030   -42.7911    20.7220 C.3     
 126 C126          13.3170   -43.1229    19.2870 C.3     
 127 C127          12.4682   -44.2550    18.7684 C.2     
 128 N128          13.1284   -41.9431    18.4392 N.am    
 129 O129          11.7742   -44.0924    17.7871 O.2     
 130 O130          11.5011   -42.5169    20.7621 O.3     
 131 C131          13.6768   -41.5628    21.2050 C.3     
 132 C132          12.4110   -47.2872    17.7841 C.3     
 133 C133          11.6554   -46.5488    18.8908 C.3     
 134 C134          11.3512   -47.5047    20.0154 C.2     
 135 N135          12.4804   -45.4482    19.3949 N.am    
 136 O136          11.7813   -47.2879    21.1285 O.2     
 137 O137          13.5744   -47.9083    18.3344 O.3     
 138 C138           9.0113   -50.2850    20.5690 C.3     
 139 C139          10.3056   -49.5296    20.8776 C.3     
 140 C140          11.4387   -50.5126    21.0217 C.2     
 141 N141          10.6013   -48.6004    19.7843 N.am    
 142 O142          12.2552   -50.6265    20.1393 O.2     
 143 C143           7.8398   -49.3012    20.5460 C.3     
 144 C144           6.5650   -50.0452    20.2420 C.2     
 145 O145           6.5908   -51.2397    20.0623 O.2     
 146 O146           5.4008   -49.3808    20.1710 O.3     
 147 H147           6.1295     5.1396     6.3143 H       
 148 H148           4.6052     5.2499     5.4018 H       
 149 H149           4.5726     5.1211     7.1768 H       
 150 H150          10.7333   -51.1133    22.9441 H       
 151 H151          11.5051   -52.4089    21.9985 H       
 152 H152          12.5033   -51.1467    22.7592 H       
 153 H153           5.1733     2.1233     9.3257 H       
 154 H154           4.3381     3.5843     8.7457 H       
 155 H155           3.8477     1.9816     8.1463 H       
 156 H156           6.5431     3.3224     7.6421 H       
 157 H157           4.1019     3.0157     6.0578 H       
 158 H158           9.3513    -0.1210     7.4973 H       
 159 H159           9.0695    -1.6471     6.6256 H       
 160 H160           6.5987    -1.2125     6.7619 H       
 161 H161           6.9590     0.8994     8.7462 H       
 162 H162           7.8881    -0.4053     4.8336 H       
 163 H163           8.1699     1.1208     5.7054 H       
 164 H164          10.6182     0.7660     5.5350 H       
 165 H165          10.3364    -0.7600     4.6633 H       
 166 H166           9.1550     0.4818     2.8713 H       
 167 H167           9.4368     2.0078     3.7431 H       
 168 H168          11.5687     0.2092     2.7901 H       
 169 H169          11.1065     1.6268     2.0533 H       
 170 H170           8.2006    -3.1365    10.6446 H       
 171 H171           8.0467    -3.2683     7.7315 H       
 172 H172           4.9206    -2.9901     8.4053 H       
 173 H173           3.3134    -1.2131     8.9730 H       
 174 H174           3.0271    -0.5149    11.3169 H       
 175 H175           4.3508    -1.5910    13.0926 H       
 176 H176           5.9613    -3.3648    12.5243 H       
 177 H177           6.1798    -4.9071     9.1988 H       
 178 H178           6.6131    -5.0645    10.9180 H       
 179 H179          11.5516    -5.8751    11.6618 H       
 180 H180          12.2638    -7.0857    10.5684 H       
 181 H181          10.1097    -7.1146     9.2757 H       
 182 H182           8.6863    -5.6819    11.3850 H       
 183 H183          11.9047    -5.5609     8.6462 H       
 184 H184          11.1926    -4.3503     9.7396 H       
 185 H185          14.7158    -3.3626     9.4919 H       
 186 H186           9.6188   -11.3945    10.3734 H       
 187 H187           9.0930   -11.9990    11.9629 H       
 188 H188           9.8964    -9.8520    12.9911 H       
 189 H189          11.3676    -9.1091    10.5804 H       
 190 H190           5.5741    -9.5858    10.7197 H       
 191 H191           2.6685   -10.8732     9.2690 H       
 192 H192           5.4872   -12.8790     9.4387 H       
 193 H193           3.8864   -12.8186     8.9321 H       
 194 H194           7.5787   -10.0501    12.2030 H       
 195 H195           8.1045    -9.4457    10.6135 H       
 196 H196           6.7386   -12.1249    11.1361 H       
 197 H197           7.2645   -11.5205     9.5466 H       
 198 H198          13.7336   -11.3564    14.2626 H       
 199 H199          12.9904   -12.5708    15.3308 H       
 200 H200          13.2962   -12.9006    12.3142 H       
 201 H201          10.6859   -12.3490    13.5257 H       
 202 H202          14.6687   -14.2519    14.4657 H       
 203 H203          16.6256   -13.4160    13.2418 H       
 204 H204          15.1461   -13.0350    12.3284 H       
 205 H205          15.9651   -11.7633    13.2665 H       
 206 H206          15.0147   -13.0451    16.6040 H       
 207 H207          16.5633   -13.3323    15.7747 H       
 208 H208          15.8136   -11.7187    15.7262 H       
 209 H209          12.9291   -17.3291    11.6925 H       
 210 H210          12.0163   -18.4466    12.7347 H       
 211 H211          12.0776   -16.7193    14.5581 H       
 212 H212          14.1170   -15.1553    13.1716 H       
 213 H213          10.2118   -16.7611    12.9615 H       
 214 H214          11.1245   -15.6436    11.9193 H       
 215 H215           8.7227   -16.1409    10.8027 H       
 216 H216           8.7975   -17.3179     9.6062 H       
 217 H217          16.2535   -19.7917    16.8007 H       
 218 H218          15.9713   -19.2031    14.4412 H       
 219 H219          13.0525   -19.2315    14.5257 H       
 220 H220          14.3119   -19.7454    18.1913 H       
 221 H221          14.4933   -17.3215    16.4588 H       
 222 H222          15.5827   -17.6380    17.8304 H       
 223 H223          16.2534   -17.3856    16.2011 H       
 224 H224          15.9596   -24.7406    13.2368 H       
 225 H225          14.5848   -23.5754    14.9925 H       
 226 H226          16.6740   -21.5922    15.4714 H       
 227 H227          15.2670   -23.2821    11.4079 H       
 228 H228          14.0357   -23.2049    12.6909 H       
 229 H229          15.2068   -21.8780    12.5003 H       
 230 H230          17.5138   -22.1139    13.2758 H       
 231 H231          18.1342   -23.6950    13.8081 H       
 232 H232          17.7278   -23.4291    12.0957 H       
 233 H233          17.4306   -26.8748    18.6930 H       
 234 H234          18.2834   -25.7674    16.6832 H       
 235 H235          15.7598   -25.9262    15.2225 H       
 236 H236          15.0728   -27.2260    18.8454 H       
 237 H237          15.7254   -24.4618    17.9272 H       
 238 H238          16.0137   -25.0452    19.5839 H       
 239 H239          17.3633   -24.3971    18.6212 H       
 240 H240          19.9060   -30.4117    17.5620 H       
 241 H241          19.7502   -31.5498    16.2023 H       
 242 H242          18.2107   -29.9083    15.0762 H       
 243 H243          18.7840   -28.2811    17.4454 H       
 244 H244          22.3138   -30.9187    16.3394 H       
 245 H245          22.7600   -29.6595    15.3206 H       
 246 H246          14.9819   -32.9576    15.2772 H       
 247 H247          14.0569   -33.3872    16.7360 H       
 248 H248          15.9646   -32.5424    18.1357 H       
 249 H249          17.7666   -32.4545    15.8395 H       
 250 H250          15.3856   -30.6360    14.7006 H       
 251 H251          14.5965   -28.3114    14.8795 H       
 252 H252          12.3752   -29.3428    18.3819 H       
 253 H253          13.1607   -31.6677    18.1902 H       
 254 H254          12.1733   -27.2237    16.2704 H       
 255 H255          16.6959   -36.8744    16.7068 H       
 256 H256          14.8721   -35.0027    18.0099 H       
 257 H257          17.5111   -34.4570    19.7541 H       
 258 H258          19.6018   -33.1691    19.5712 H       
 259 H259          21.5594   -34.1527    18.4472 H       
 260 H260          21.4250   -36.4226    17.5025 H       
 261 H261          19.3329   -37.7088    17.6813 H       
 262 H262          16.4822   -36.6551    19.7424 H       
 263 H263          17.2430   -38.0127    18.8787 H       
 264 H264          12.7598   -40.8079    16.0695 H       
 265 H265          12.9988   -39.2101    18.0052 H       
 266 H266          15.9247   -39.2844    17.7191 H       
 267 H267          13.9805   -38.0833    15.4346 H       
 268 H268          12.9942   -39.0576    14.3183 H       
 269 H269          12.2683   -38.3995    15.8042 H       
 270 H270          14.6745   -40.8035    14.4159 H       
 271 H271          15.6760   -40.0167    15.6594 H       
 272 H272          15.8602   -42.5745    15.5180 H       
 273 H273          15.5032   -41.9059    17.1285 H       
 274 H274          14.1999   -42.6309    16.1569 H       
 275 H275          13.1260   -43.6389    21.3698 H       
 276 H276          14.3661   -43.4182    19.2706 H       
 277 H277          12.3085   -41.8364    17.9320 H       
 278 H278          11.1681   -42.2982    21.6432 H       
 279 H279          13.3819   -41.3264    22.2274 H       
 280 H280          14.7462   -41.7719    21.1745 H       
 281 H281          13.4538   -40.7150    20.5573 H       
 282 H282          11.7643   -48.0488    17.3484 H       
 283 H283          12.7086   -46.5780    17.0118 H       
 284 H284          10.7231   -46.1502    18.4906 H       
 285 H285          13.0355   -45.5783    20.1797 H       
 286 H286          14.1031   -48.3957    17.6879 H       
 287 H287           9.0971   -50.7707    19.5970 H       
 288 H288           8.8382   -51.0383    21.3376 H       
 289 H289          10.1881   -48.9719    21.8067 H       
 290 H290          10.2573   -48.7738    18.8941 H       
 291 H291           7.7541   -48.8155    21.5180 H       
 292 H292           8.0129   -48.5479    19.7774 H       
 293 H293           4.6099   -49.9009    19.9734 H       
@<TRIPOS>BOND
   1    1    6 1
   2    1  147 1
   3    1  148 1
   4    1  149 1
   5    2  140 1
   6    2  150 1
   7    2  151 1
   8    2  152 1
   9    3    4 1
  10    3  153 1
  11    3  154 1
  12    3  155 1
  13    4    5 1
  14    4    6 1
  15    4  156 1
  16    5    7 2
  17    5   11 am
  18    6  157 1
  19    8   13 1
  20    8    9 1
  21    8  158 1
  22    8  159 1
  23    9   11 1
  24    9   10 1
  25    9  160 1
  26   10   12 2
  27   10   19 am
  28   11  161 1
  29   13   14 1
  30   13  162 1
  31   13  163 1
  32   14   15 1
  33   14  164 1
  34   14  165 1
  35   15   16 1
  36   15  166 1
  37   15  167 1
  38   16  168 1
  39   16  169 1
  40   17   18 1
  41   17   19 1
  42   17   27 1
  43   17  170 1
  44   18   20 2
  45   18   31 am
  46   19  171 1
  47   21   22 ar
  48   21   26 ar
  49   21  172 1
  50   22   23 ar
  51   22  173 1
  52   23   24 ar
  53   23  174 1
  54   24   25 ar
  55   24  175 1
  56   25   26 ar
  57   25  176 1
  58   26   27 1
  59   27  177 1
  60   27  178 1
  61   28   33 1
  62   28   29 1
  63   28  179 1
  64   28  180 1
  65   29   31 1
  66   29   30 1
  67   29  181 1
  68   30   32 2
  69   30   40 am
  70   31  182 1
  71   33   34 1
  72   33  183 1
  73   33  184 1
  74   34   35 2
  75   34   36 1
  76   36  185 1
  77   37   46 1
  78   37   38 1
  79   37  186 1
  80   37  187 1
  81   38   40 1
  82   38   39 1
  83   38  188 1
  84   39   41 2
  85   39   51 am
  86   40  189 1
  87   42   47 1
  88   42   43 1
  89   42  190 1
  90   43   44 2
  91   43   45 1
  92   44  191 1
  93   45  192 1
  94   45  193 1
  95   46   47 1
  96   46  194 1
  97   46  195 1
  98   47  196 1
  99   47  197 1
 100   48   53 1
 101   48   49 1
 102   48  198 1
 103   48  199 1
 104   49   51 1
 105   49   50 1
 106   49  200 1
 107   50   52 2
 108   50   59 am
 109   51  201 1
 110   53   54 1
 111   53   55 1
 112   53  202 1
 113   54  203 1
 114   54  204 1
 115   54  205 1
 116   55  206 1
 117   55  207 1
 118   55  208 1
 119   56   61 1
 120   56   57 1
 121   56  209 1
 122   56  210 1
 123   57   59 1
 124   57   58 1
 125   57  211 1
 126   58   60 2
 127   58   68 am
 128   59  212 1
 129   61   62 1
 130   61  213 1
 131   61  214 1
 132   62   63 2
 133   62   64 am
 134   64  215 1
 135   64  216 1
 136   65   66 1
 137   65   70 1
 138   65   71 1
 139   65  217 1
 140   66   68 1
 141   66   67 1
 142   66  218 1
 143   67   69 2
 144   67   75 am
 145   68  219 1
 146   70  220 1
 147   71  221 1
 148   71  222 1
 149   71  223 1
 150   72   77 1
 151   72   78 1
 152   72   73 1
 153   72  224 1
 154   73   75 1
 155   73   74 1
 156   73  225 1
 157   74   76 2
 158   74   82 am
 159   75  226 1
 160   77  227 1
 161   77  228 1
 162   77  229 1
 163   78  230 1
 164   78  231 1
 165   78  232 1
 166   79   80 1
 167   79   84 1
 168   79   85 1
 169   79  233 1
 170   80   82 1
 171   80   81 1
 172   80  234 1
 173   81   83 2
 174   81   89 am
 175   82  235 1
 176   84  236 1
 177   85  237 1
 178   85  238 1
 179   85  239 1
 180   86   91 1
 181   86   87 1
 182   86  240 1
 183   86  241 1
 184   87   89 1
 185   87   88 1
 186   87  242 1
 187   88   90 2
 188   88   97 am
 189   89  243 1
 190   91   92 am
 191   91   93 2
 192   92  244 1
 193   92  245 1
 194   94   99 1
 195   94   95 1
 196   94  246 1
 197   94  247 1
 198   95   96 1
 199   95   97 1
 200   95  248 1
 201   96   98 2
 202   96  108 am
 203   97  249 1
 204   99  100 ar
 205   99  104 ar
 206  100  101 ar
 207  100  250 1
 208  101  102 ar
 209  101  251 1
 210  102  103 ar
 211  102  105 1
 212  103  104 ar
 213  103  252 1
 214  104  253 1
 215  105  254 1
 216  106  107 1
 217  106  108 1
 218  106  116 1
 219  106  255 1
 220  107  109 2
 221  107  120 am
 222  108  256 1
 223  110  111 ar
 224  110  115 ar
 225  110  257 1
 226  111  112 ar
 227  111  258 1
 228  112  113 ar
 229  112  259 1
 230  113  114 ar
 231  113  260 1
 232  114  115 ar
 233  114  261 1
 234  115  116 1
 235  116  262 1
 236  116  263 1
 237  117  118 1
 238  117  122 1
 239  117  123 1
 240  117  264 1
 241  118  120 1
 242  118  119 1
 243  118  265 1
 244  119  121 2
 245  119  128 am
 246  120  266 1
 247  122  267 1
 248  122  268 1
 249  122  269 1
 250  123  124 1
 251  123  270 1
 252  123  271 1
 253  124  272 1
 254  124  273 1
 255  124  274 1
 256  125  126 1
 257  125  130 1
 258  125  131 1
 259  125  275 1
 260  126  128 1
 261  126  127 1
 262  126  276 1
 263  127  129 2
 264  127  135 am
 265  128  277 1
 266  130  278 1
 267  131  279 1
 268  131  280 1
 269  131  281 1
 270  132  137 1
 271  132  133 1
 272  132  282 1
 273  132  283 1
 274  133  135 1
 275  133  134 1
 276  133  284 1
 277  134  136 2
 278  134  141 am
 279  135  285 1
 280  137  286 1
 281  138  143 1
 282  138  139 1
 283  138  287 1
 284  138  288 1
 285  139  141 1
 286  139  140 1
 287  139  289 1
 288  140  142 2
 289  141  290 1
 290  143  144 1
 291  143  291 1
 292  143  292 1
 293  144  145 2
 294  144  146 1
 295  146  293 1

#	End of record

