#	Name: ASD01811137
#	Creating user name:	WinNT
#	Creation time:	15. 06. 2019 19:26

#	Modifying user name:	WinNT
#	Modification time:	15. 06. 2019 19:26

#	Program:	/corina/corina34_cracker 3.40 0067  02.08.2006

@<TRIPOS>MOLECULE
ASD01811137
  52   56    0    0    0
SMALL
NO_CHARGES


@<TRIPOS>ATOM
   1 C1             8.0741    -0.4355     1.8172 C.2     
   2 C2             7.0701     0.1404     1.0270 C.2     
   3 C3             5.9716    -0.5970     0.6944 C.2     
   4 C4             5.8655    -1.9218     1.1498 C.2     
   5 N5             6.8608    -2.4587     1.9203 N.am    
   6 C6             7.9542    -1.7122     2.2461 C.2     
   7 C7             4.7375    -2.6817     0.8095 C.2     
   8 C8             4.6246    -3.9695     1.2466 C.2     
   9 C9             5.6503    -4.5186     2.0383 C.2     
  10 C10            6.7716    -3.7287     2.3643 C.2     
  11 O11            7.6653    -4.1965     3.0496 O.2     
  12 C12            5.5531    -5.8980     2.5205 C.2     
  13 O13            4.5827    -6.5745     2.2370 O.2     
  14 O14            6.5397    -6.4185     3.2791 O.3     
  15 C15            3.6492    -2.0760    -0.0390 C.3     
  16 N16            3.8452    -2.4693    -1.4408 N.3     
  17 C17            5.0833    -1.8877    -1.9835 C.3     
  18 C18            5.4265    -2.6080    -3.2878 C.3     
  19 C19            4.2205    -2.6393    -4.1912 C.ar    
  20 C20            2.9513    -2.3945    -3.7124 C.ar    
  21 C21            2.6966    -2.0749    -2.2626 C.3     
  22 C22            4.4084    -2.9238    -5.5352 C.ar    
  23 C23            3.3297    -2.9652    -6.3972 C.ar    
  24 C24            2.0552    -2.7218    -5.9162 C.ar    
  25 C25            1.8684    -2.4381    -4.5787 C.ar    
  26 Cl26           3.5722    -3.3211    -8.0789 Cl      
  27 C27            1.4719    -2.8189    -1.7962 C.ar    
  28 C28            0.2711    -2.1550    -1.5971 C.ar    
  29 C29           -0.8312    -2.8706    -1.1693 C.ar    
  30 N30           -0.7495    -4.1685    -0.9508 N.ar    
  31 C31            0.3757    -4.8324    -1.1296 C.ar    
  32 C32            1.5176    -4.1847    -1.5616 C.ar    
  33 H33            8.9485     0.1409     2.0806 H       
  34 H34            7.1651     1.1602     0.6844 H       
  35 H35            5.1900    -0.1659     0.0865 H       
  36 H36            8.7337    -2.1457     2.8551 H       
  37 H37            3.7581    -4.5602     0.9883 H       
  38 H38            6.4309    -7.3330     3.5738 H       
  39 H39            2.6787    -2.4325     0.3061 H       
  40 H40            3.6873    -0.9897     0.0423 H       
  41 H41            4.9338    -0.8260    -2.1799 H       
  42 H42            5.8945    -2.0199    -1.2677 H       
  43 H43            6.2399    -2.0825    -3.7881 H       
  44 H44            5.7392    -3.6284    -3.0661 H       
  45 H45            2.5266    -1.0037    -2.1543 H       
  46 H46            5.4033    -3.1137    -5.9101 H       
  47 H47            1.2087    -2.7537    -6.5860 H       
  48 H48            0.8734    -2.2485    -4.2041 H       
  49 H49            0.1981    -1.0920    -1.7737 H       
  50 H50           -1.7702    -2.3608    -1.0119 H       
  51 H51            0.4043    -5.8952    -0.9400 H       
  52 H52            2.4362    -4.7339    -1.7065 H       
@<TRIPOS>BOND
   1    1    2 1
   2    1    6 2
   3    1   33 1
   4    2    3 2
   5    2   34 1
   6    3    4 1
   7    3   35 1
   8    4    5 1
   9    4    7 2
  10    5    6 1
  11    5   10 am
  12    6   36 1
  13    7    8 1
  14    7   15 1
  15    8    9 2
  16    8   37 1
  17    9   10 1
  18    9   12 1
  19   10   11 2
  20   12   13 2
  21   12   14 1
  22   14   38 1
  23   15   16 1
  24   15   39 1
  25   15   40 1
  26   16   17 1
  27   16   21 1
  28   17   18 1
  29   17   41 1
  30   17   42 1
  31   18   19 1
  32   18   43 1
  33   18   44 1
  34   19   20 ar
  35   19   22 ar
  36   20   21 1
  37   20   25 ar
  38   21   27 1
  39   21   45 1
  40   22   23 ar
  41   22   46 1
  42   23   24 ar
  43   23   26 1
  44   24   25 ar
  45   24   47 1
  46   25   48 1
  47   27   28 ar
  48   27   32 ar
  49   28   29 ar
  50   28   49 1
  51   29   30 ar
  52   29   50 1
  53   30   31 ar
  54   31   32 ar
  55   31   51 1
  56   32   52 1

#	End of record

