#	Name: ASD00120018
#	Creating user name:	WinNT
#	Creation time:	15. 06. 2019 18:31

#	Modifying user name:	WinNT
#	Modification time:	15. 06. 2019 18:31

#	Program:	/corina/corina34_cracker 3.40 0067  02.08.2006

@<TRIPOS>MOLECULE
ASD00120018
  27   26    0    0    0
SMALL
NO_CHARGES


@<TRIPOS>ATOM
   1 C1            -0.0363     1.4790    -0.0546 C.2     
   2 C2             0.0004    -0.0275    -0.0366 C.3     
   3 C3            -0.1228    -0.5234     1.4056 C.3     
   4 C4            -0.0861    -2.0298     1.4236 C.2     
   5 C5             2.3869     1.4742    -0.0378 C.2     
   6 C6             1.1029     2.1743    -0.0549 C.2     
   7 C7            -1.0506    -2.7016     2.0020 C.2     
   8 C8            -2.1247    -1.9711     2.7660 C.3     
   9 C9            -1.0861    -4.2050     1.9033 C.3     
  10 C10           -1.3592     2.2003    -0.0786 C.3     
  11 O11            3.4226     2.1063    -0.0381 O.2     
  12 H12           -0.8282    -0.4182    -0.6272 H       
  13 H13            0.9433    -0.3730    -0.4603 H       
  14 H14            0.7058    -0.1327     1.9962 H       
  15 H15           -1.0657    -0.1778     1.8293 H       
  16 H16            0.7353    -2.5556     0.9597 H       
  17 H17            2.4132     0.3946    -0.0249 H       
  18 H18            1.0766     3.2539    -0.0678 H       
  19 H19           -2.9018    -1.6425     2.0760 H       
  20 H20           -2.5585    -2.6384     3.5107 H       
  21 H21           -1.6906    -1.1041     3.2639 H       
  22 H22           -0.2349    -4.5508     1.3167 H       
  23 H23           -1.0374    -4.6360     2.9032 H       
  24 H24           -2.0116    -4.5155     1.4184 H       
  25 H25           -1.6903     2.3862     0.9432 H       
  26 H26           -1.2461     3.1495    -0.6022 H       
  27 H27           -2.0982     1.5868    -0.5940 H       
@<TRIPOS>BOND
   1    1    2 1
   2    1    6 2
   3    1   10 1
   4    2    3 1
   5    2   12 1
   6    2   13 1
   7    3    4 1
   8    3   14 1
   9    3   15 1
  10    4    7 2
  11    4   16 1
  12    5   11 2
  13    5    6 1
  14    5   17 1
  15    6   18 1
  16    7    8 1
  17    7    9 1
  18    8   19 1
  19    8   20 1
  20    8   21 1
  21    9   22 1
  22    9   23 1
  23    9   24 1
  24   10   25 1
  25   10   26 1
  26   10   27 1

#	End of record

