#	Name: ASD01001170
#	Creating user name:	WinNT
#	Creation time:	15. 06. 2019 18:55

#	Modifying user name:	WinNT
#	Modification time:	15. 06. 2019 18:55

#	Program:	/corina/corina34_cracker 3.40 0067  02.08.2006

@<TRIPOS>MOLECULE
ASD01001170
  39   42    0    0    0
SMALL
NO_CHARGES


@<TRIPOS>ATOM
   1 C1            -0.0167     1.3781     0.0096 C.ar    
   2 C2             0.0021    -0.0041     0.0020 C.ar    
   3 C3             1.1709     2.0855     0.0021 C.ar    
   4 C4             1.2084    -0.6789    -0.0132 C.ar    
   5 C5             2.3773     1.4107    -0.0131 C.ar    
   6 C6             2.3960     0.0285    -0.0212 C.ar    
   7 C7             1.2289    -2.1857    -0.0205 C.3     
   8 C8             1.4718    -2.6893    -1.4441 C.3     
   9 N9             2.3158    -2.6673     0.8358 N.3     
  10 C10            0.5268    -2.0087    -2.4266 C.3     
  11 C11            1.2800    -4.2048    -1.4582 C.3     
  12 C12            2.5347    -4.0419     0.7333 C.ar    
  13 C13           -0.9149    -2.4404    -2.1434 C.3     
  14 C14            2.0763    -4.8078    -0.3231 C.ar    
  15 O15           -0.0984    -4.5264    -1.2554 O.3     
  16 C16            3.2581    -4.6575     1.7592 C.ar    
  17 C17           -0.9918    -3.9688    -2.2187 C.3     
  18 C18            2.3409    -6.1673    -0.3622 C.ar    
  19 C19            3.5160    -6.0134     1.7160 C.ar    
  20 C20            3.0578    -6.7707     0.6520 C.ar    
  21 F21            3.7072    -3.9215     2.7992 F       
  22 Cl22           4.4149    -6.7676     2.9954 Cl      
  23 H23           -0.9592     1.9054     0.0170 H       
  24 H24           -0.9258    -0.5567     0.0083 H       
  25 H25            1.1563     3.1654     0.0077 H       
  26 H26            3.3051     1.9634    -0.0197 H       
  27 H27            3.3385    -0.4987    -0.0327 H       
  28 H28            0.2751    -2.5665     0.3448 H       
  29 H29            2.5004    -2.4672    -1.7285 H       
  30 H30            3.1663    -2.1520     0.6647 H       
  31 H31            0.6091    -0.9272    -2.3185 H       
  32 H32            0.7965    -2.2917    -3.4441 H       
  33 H33            1.6289    -4.6105    -2.4079 H       
  34 H34           -1.2074    -2.1080    -1.1474 H       
  35 H35           -1.5806    -2.0035    -2.8878 H       
  36 H36           -2.0096    -4.2940    -2.0034 H       
  37 H37           -0.7049    -4.2998    -3.2168 H       
  38 H38            1.9835    -6.7594    -1.1917 H       
  39 H39            3.2603    -7.8310     0.6153 H       
@<TRIPOS>BOND
   1    1    2 ar
   2    1    3 ar
   3    1   23 1
   4    2    4 ar
   5    2   24 1
   6    3    5 ar
   7    3   25 1
   8    4    6 ar
   9    4    7 1
  10    5    6 ar
  11    5   26 1
  12    6   27 1
  13    7    8 1
  14    7    9 1
  15    7   28 1
  16    8   10 1
  17    8   11 1
  18    8   29 1
  19    9   12 1
  20    9   30 1
  21   10   13 1
  22   10   31 1
  23   10   32 1
  24   11   14 1
  25   11   15 1
  26   11   33 1
  27   12   14 ar
  28   12   16 ar
  29   13   17 1
  30   13   34 1
  31   13   35 1
  32   14   18 ar
  33   15   17 1
  34   16   21 1
  35   16   19 ar
  36   17   36 1
  37   17   37 1
  38   18   20 ar
  39   18   38 1
  40   19   22 1
  41   19   20 ar
  42   20   39 1

#	End of record

