#	Name: ASD03091693
#	Creating user name:	WinNT
#	Creation time:	15. 06. 2019 20:31

#	Modifying user name:	WinNT
#	Modification time:	15. 06. 2019 20:31

#	Program:	/corina/corina34_cracker 3.40 0067  02.08.2006

@<TRIPOS>MOLECULE
ASD03091693
  42   44    0    0    0
SMALL
NO_CHARGES


@<TRIPOS>ATOM
   1 Cl1            0.0000     0.0000     0.0000 Cl      
   2 H2             0.0000     1.3700     0.0000 H       
   3 C3            14.5233    10.5545     6.5722 C.ar    
   4 C4            14.5423     9.1542     6.5645 C.ar    
   5 C5            15.7648     8.4743     6.5496 C.ar    
   6 C6            16.9457     9.1765     6.5430 C.ar    
   7 C7            16.9324    10.5661     6.5510 C.ar    
   8 C8            15.7571    11.2486     6.5641 C.ar    
   9 S9            12.8921     8.5426     6.5769 S.3     
  10 C10           12.2360    10.1702     6.5919 C.2     
  11 C11           13.2195    11.0756     6.5931 C.2     
  12 C12           10.8020    10.4934     6.6069 C.2     
  13 O13           10.4404    11.6548     6.6162 O.2     
  14 N14            9.8880     9.5030     6.6104 N.am    
  15 N15            6.9510     9.0809     8.4053 N.3     
  16 C16            7.9994    10.0533     8.0683 C.3     
  17 C17            8.4589     9.8251     6.6254 C.3     
  18 C18            7.6624     8.6567     6.0312 C.3     
  19 C19            6.1694     9.0043     6.0861 C.3     
  20 C20            5.7732     9.2546     7.5439 C.3     
  21 C21            7.4618     7.7054     8.3268 C.3     
  22 C22            7.9066     7.4104     6.8915 C.3     
  23 N23           15.7861     6.9942     6.5414 N.pl3   
  24 O24           16.8495     6.4005     6.5285 O.2     
  25 O25           14.7402     6.3700     6.5477 O.2     
  26 H26           17.8869     8.6471     6.5318 H       
  27 H27           17.8657    11.1094     6.5464 H       
  28 H28           15.7645    12.3286     6.5695 H       
  29 H29           13.0241    12.1378     6.6018 H       
  30 H30           10.1764     8.5768     6.6030 H       
  31 H31            7.6037    11.0640     8.1684 H       
  32 H32            8.8451     9.9250     8.7438 H       
  33 H33            8.2794    10.7256     6.0381 H       
  34 H34            7.9685     8.4804     5.0000 H       
  35 H35            5.9816     9.9021     5.4973 H       
  36 H36            5.5863     8.1746     5.6865 H       
  37 H37            5.0000     8.5447     7.8377 H       
  38 H38            5.3931    10.2708     7.6482 H       
  39 H39            8.3109     7.5937     9.0009 H       
  40 H40            6.6747     7.0082     8.6141 H       
  41 H41            7.3305     6.5744     6.4951 H       
  42 H42            8.9679     7.1622     6.8819 H       
@<TRIPOS>BOND
   1    1    2 1
   2    3    4 ar
   3    3    8 ar
   4    3   11 1
   5    4    5 ar
   6    4    9 1
   7    5    6 ar
   8    5   23 1
   9    6    7 ar
  10    6   26 1
  11    7    8 ar
  12    7   27 1
  13    8   28 1
  14    9   10 1
  15   10   11 2
  16   10   12 1
  17   11   29 1
  18   12   13 2
  19   12   14 am
  20   14   17 1
  21   14   30 1
  22   15   16 1
  23   15   20 1
  24   15   21 1
  25   16   17 1
  26   16   31 1
  27   16   32 1
  28   17   18 1
  29   17   33 1
  30   18   19 1
  31   18   22 1
  32   18   34 1
  33   19   20 1
  34   19   35 1
  35   19   36 1
  36   20   37 1
  37   20   38 1
  38   21   22 1
  39   21   39 1
  40   21   40 1
  41   22   41 1
  42   22   42 1
  43   23   24 2
  44   23   25 2

#	End of record

