#	Name: ASD01151096
#	Creating user name:	WinNT
#	Creation time:	15. 06. 2019 19:05

#	Modifying user name:	WinNT
#	Modification time:	15. 06. 2019 19:05

#	Program:	/corina/corina34_cracker 3.40 0067  02.08.2006

@<TRIPOS>MOLECULE
ASD01151096
  41   43    0    0    0
SMALL
NO_CHARGES


@<TRIPOS>ATOM
   1 C1            -2.8720     1.4854     0.3231 C.3     
   2 C2            -2.8512    -0.0445     0.3147 C.3     
   3 H3            -3.1644    -0.4175     1.2898 H       
   4 O4            -3.7456    -0.5275    -0.6898 O.3     
   5 C5            -1.4333    -0.5336     0.0129 C.3     
   6 N6            -1.4134    -1.9985     0.0048 N.am    
   7 C7            -1.5117    -2.6594    -1.1616 C.2     
   8 O8            -1.6154    -2.0161    -2.1880 O.2     
   9 N9            -1.4998    -3.9991    -1.2414 N.am    
  10 C10           -1.6118    -4.6413    -2.5534 C.3     
  11 C11           -0.2355    -4.8411    -3.1340 C.ar    
  12 C12            0.3341    -3.8543    -3.9168 C.ar    
  13 C13            1.5963    -4.0370    -4.4496 C.ar    
  14 C14            2.2897    -5.2078    -4.1993 C.ar    
  15 Cl15           3.8753    -5.4377    -4.8677 Cl      
  16 C16            1.7191    -6.1950    -3.4158 C.ar    
  17 C17            0.4591    -6.0088    -2.8789 C.ar    
  18 C18           -1.3861    -4.7668    -0.1361 C.2     
  19 O19           -1.3754    -5.9800    -0.2179 O.2     
  20 C20           -1.2750    -4.0968     1.1715 C.ar    
  21 C21           -1.1546    -4.8192     2.3568 C.ar    
  22 C22           -1.0535    -4.1465     3.5561 C.ar    
  23 C23           -1.0711    -2.7595     3.5875 C.ar    
  24 Cl24          -0.9425    -1.9317     5.1080 Cl      
  25 C25           -1.1897    -2.0300     2.4173 C.ar    
  26 F26           -1.2050    -0.6797     2.4582 F       
  27 C27           -1.2875    -2.6913     1.2016 C.ar    
  28 H28           -3.8822     1.8338     0.5381 H       
  29 H29           -2.1898     1.8538     1.0892 H       
  30 H30           -2.5588     1.8583    -0.6521 H       
  31 H31           -3.5271    -0.2342    -1.5849 H       
  32 H32           -1.1201    -0.1607    -0.9623 H       
  33 H33           -0.7511    -0.1652     0.7790 H       
  34 H34           -2.1038    -5.6078    -2.4440 H       
  35 H35           -2.1985    -4.0081    -3.2190 H       
  36 H36           -0.2075    -2.9406    -4.1124 H       
  37 H37            2.0410    -3.2661    -5.0615 H       
  38 H38            2.2598    -7.1093    -3.2203 H       
  39 H39            0.0156    -6.7774    -2.2633 H       
  40 H40           -1.1409    -5.8989     2.3363 H       
  41 H41           -0.9604    -4.7029     4.4771 H       
@<TRIPOS>BOND
   1    1    2 1
   2    1   28 1
   3    1   29 1
   4    1   30 1
   5    2    3 1
   6    2    4 1
   7    2    5 1
   8    4   31 1
   9    5    6 1
  10    5   32 1
  11    5   33 1
  12    6   27 1
  13    6    7 am
  14    7    8 2
  15    7    9 am
  16    9   10 1
  17    9   18 am
  18   10   11 1
  19   10   34 1
  20   10   35 1
  21   11   17 ar
  22   11   12 ar
  23   12   13 ar
  24   12   36 1
  25   13   14 ar
  26   13   37 1
  27   14   15 1
  28   14   16 ar
  29   16   17 ar
  30   16   38 1
  31   17   39 1
  32   18   19 2
  33   18   20 1
  34   20   27 ar
  35   20   21 ar
  36   21   22 ar
  37   21   40 1
  38   22   23 ar
  39   22   41 1
  40   23   24 1
  41   23   25 ar
  42   25   26 1
  43   25   27 ar

#	End of record

