#	Name: ASD03092161
#	Creating user name:	WinNT
#	Creation time:	15. 06. 2019 20:32

#	Modifying user name:	WinNT
#	Modification time:	15. 06. 2019 20:32

#	Program:	/corina/corina34_cracker 3.40 0067  02.08.2006

@<TRIPOS>MOLECULE
ASD03092161
  47   50    0    0    0
SMALL
NO_CHARGES


@<TRIPOS>ATOM
   1 N1             0.0493     1.1142    -0.2576 N.pl3   
   2 C2            -0.1091    -0.1669     0.1801 C.2     
   3 C3            -1.4479    -0.3806     0.3449 C.2     
   4 C4            -2.1158     0.8010    -0.0018 C.2     
   5 N5            -1.2216     1.6947    -0.3560 N.2     
   6 N6            -3.5018     0.9972     0.0291 N.pl3   
   7 C7            -4.0339     2.2632    -0.2273 C.ar    
   8 C8            -5.3224     2.3875    -0.7299 C.ar    
   9 C9            -5.8461     3.6428    -0.9822 C.ar    
  10 C10           -5.0858     4.7736    -0.7340 C.ar    
  11 C11           -3.2768     3.4008     0.0256 C.ar    
  12 C12            0.9712    -1.1465     0.4302 C.ar    
  13 C13            1.3230     1.7696    -0.5646 C.3     
  14 C14            0.7519    -2.2262     1.2856 C.ar    
  15 C15            1.7610    -3.1374     1.5179 C.ar    
  16 C16            2.9963    -2.9848     0.9033 C.ar    
  17 C17            3.2202    -1.9111     0.0465 C.ar    
  18 C18            2.2100    -0.9960    -0.1933 C.ar    
  19 C19           -3.8025     4.6510    -0.2339 C.ar    
  20 F20           -7.0995     3.7658    -1.4712 F       
  21 C21            1.6224     1.6223    -2.0341 C.2     
  22 N22            2.7507     2.1506    -2.5482 N.am    
  23 O23            0.8481     1.0283    -2.7542 O.2     
  24 O24            3.9802    -3.8919     1.1529 O.3     
  25 C25            5.0778    -3.9205     0.2344 C.3     
  26 C26            5.5292    -2.4761    -0.0208 C.3     
  27 O27            4.4233    -1.7515    -0.5702 O.3     
  28 C28            3.0418     2.0074    -3.9769 C.3     
  29 H29           -1.9094    -1.2971     0.6819 H       
  30 H30           -4.0925     0.2542     0.2286 H       
  31 H31           -5.9147     1.5054    -0.9240 H       
  32 H32           -5.4960     5.7529    -0.9318 H       
  33 H33           -2.2761     3.3069     0.4206 H       
  34 H34            1.2574     2.8278    -0.3114 H       
  35 H35            2.1197     1.3057     0.0169 H       
  36 H36           -0.2076    -2.3485     1.7662 H       
  37 H37            1.5895    -3.9727     2.1807 H       
  38 H38            2.3831    -0.1615    -0.8566 H       
  39 H39           -3.2120     5.5347    -0.0418 H       
  40 H40            3.3700     2.6257    -1.9723 H       
  41 H41            5.9009    -4.4924     0.6629 H       
  42 H42            4.7608    -4.3775    -0.7030 H       
  43 H43            5.8398    -2.0168     0.9176 H       
  44 H44            6.3599    -2.4697    -0.7265 H       
  45 H45            3.9895     2.4951    -4.2052 H       
  46 H46            3.1075     0.9492    -4.2300 H       
  47 H47            2.2451     2.4713    -4.5583 H       
@<TRIPOS>BOND
   1    1    2 1
   2    1   13 1
   3    1    5 1
   4    2    3 2
   5    2   12 1
   6    3    4 1
   7    3   29 1
   8    4    5 2
   9    4    6 1
  10    6    7 1
  11    6   30 1
  12    7    8 ar
  13    7   11 ar
  14    8    9 ar
  15    8   31 1
  16    9   10 ar
  17    9   20 1
  18   10   19 ar
  19   10   32 1
  20   11   19 ar
  21   11   33 1
  22   12   14 ar
  23   12   18 ar
  24   13   21 1
  25   13   34 1
  26   13   35 1
  27   14   15 ar
  28   14   36 1
  29   15   16 ar
  30   15   37 1
  31   16   17 ar
  32   16   24 1
  33   17   18 ar
  34   17   27 1
  35   18   38 1
  36   19   39 1
  37   21   22 am
  38   21   23 2
  39   22   28 1
  40   22   40 1
  41   24   25 1
  42   25   26 1
  43   25   41 1
  44   25   42 1
  45   26   27 1
  46   26   43 1
  47   26   44 1
  48   28   45 1
  49   28   46 1
  50   28   47 1

#	End of record

