#	Name: ASD01890347
#	Creating user name:	WinNT
#	Creation time:	15. 06. 2019 19:50

#	Modifying user name:	WinNT
#	Modification time:	15. 06. 2019 19:50

#	Program:	/corina/corina34_cracker 3.40 0067  02.08.2006

@<TRIPOS>MOLECULE
ASD01890347
  49   51    0    0    0
SMALL
NO_CHARGES


@<TRIPOS>ATOM
   1 C1            -0.0170     1.4060     0.0098 C.2     
   2 C2             0.0021    -0.0041     0.0020 C.2     
   3 C3             1.1943    -0.6710    -0.0129 C.2     
   4 O4             1.0288     2.0289     0.0031 O.2     
   5 O5            -1.1954     2.0651     0.0189 O.3     
   6 C6             1.2144    -2.1493    -0.0211 C.ar    
   7 C7             0.7032    -2.8516    -1.1143 C.ar    
   8 C8             0.7255    -4.2308    -1.1156 C.ar    
   9 C9             1.2528    -4.9184    -0.0367 C.ar    
  10 C10            1.7610    -4.2286     1.0499 C.ar    
  11 C11            1.7498    -2.8493     1.0619 C.ar    
  12 C12            2.4609     0.0835    -0.0210 C.ar    
  13 C13            2.8963     0.7216    -1.1948 C.ar    
  14 C14            4.0914     1.4298    -1.1894 C.ar    
  15 C15            4.8457     1.5051    -0.0361 C.ar    
  16 C16            4.4191     0.8765     1.1244 C.ar    
  17 C17            3.2331     0.1733     1.1401 C.ar    
  18 S18            1.9317     0.6235    -2.6660 S.3     
  19 C19            2.9043     1.5864    -3.8566 C.3     
  20 C20            2.1995     1.5977    -5.1886 C.ar    
  21 C21            1.2867     2.5944    -5.4791 C.ar    
  22 C22            0.6402     2.6048    -6.7009 C.ar    
  23 C23            0.9067     1.6187    -7.6323 C.ar    
  24 C24            1.8201     0.6226    -7.3421 C.ar    
  25 C25            2.4699     0.6146    -6.1220 C.ar    
  26 Cl26           5.3804     0.9808     2.5662 Cl      
  27 C27           -1.1400     3.4930     0.0264 C.3     
  28 C28           -2.5616     4.0586     0.0363 C.3     
  29 H29           -0.9258    -0.5567     0.0079 H       
  30 H30            0.2911    -2.3161    -1.9568 H       
  31 H31            0.3301    -4.7752    -1.9604 H       
  32 H32            1.2674    -5.9982    -0.0427 H       
  33 H33            2.1711    -4.7714     1.8888 H       
  34 H34            2.1505    -2.3121     1.9088 H       
  35 H35            4.4308     1.9218    -2.0889 H       
  36 H36            5.7742     2.0567    -0.0373 H       
  37 H37            2.9033    -0.3105     2.0476 H       
  38 H38            3.0131     2.6087    -3.4944 H       
  39 H39            3.8896     1.1345    -3.9707 H       
  40 H40            1.0785     3.3648    -4.7514 H       
  41 H41           -0.0735     3.3831    -6.9276 H       
  42 H42            0.4010     1.6264    -8.5866 H       
  43 H43            2.0281    -0.1480    -8.0697 H       
  44 H44            3.1862    -0.1615    -5.8967 H       
  45 H45           -0.6083     3.8313     0.9158 H       
  46 H46           -0.6167     3.8410    -0.8642 H       
  47 H47           -3.0934     3.7203    -0.8531 H       
  48 H48           -3.0849     3.7106     0.9269 H       
  49 H49           -2.5193     5.1477     0.0420 H       
@<TRIPOS>BOND
   1    1    2 1
   2    1    4 2
   3    1    5 1
   4    2    3 2
   5    2   29 1
   6    3    6 1
   7    3   12 1
   8    5   27 1
   9    6    7 ar
  10    6   11 ar
  11    7    8 ar
  12    7   30 1
  13    8    9 ar
  14    8   31 1
  15    9   10 ar
  16    9   32 1
  17   10   11 ar
  18   10   33 1
  19   11   34 1
  20   12   13 ar
  21   12   17 ar
  22   13   14 ar
  23   13   18 1
  24   14   15 ar
  25   14   35 1
  26   15   16 ar
  27   15   36 1
  28   16   17 ar
  29   16   26 1
  30   17   37 1
  31   18   19 1
  32   19   20 1
  33   19   38 1
  34   19   39 1
  35   20   21 ar
  36   20   25 ar
  37   21   22 ar
  38   21   40 1
  39   22   23 ar
  40   22   41 1
  41   23   24 ar
  42   23   42 1
  43   24   25 ar
  44   24   43 1
  45   25   44 1
  46   27   28 1
  47   27   45 1
  48   27   46 1
  49   28   47 1
  50   28   48 1
  51   28   49 1

#	End of record

