#	Name: ASD01916788
#	Creating user name:	WinNT
#	Creation time:	15. 06. 2019 20:08

#	Modifying user name:	WinNT
#	Modification time:	15. 06. 2019 20:08

#	Program:	/corina/corina34_cracker 3.40 0067  02.08.2006

@<TRIPOS>MOLECULE
ASD01916788
  58   62    0    0    0
SMALL
NO_CHARGES


@<TRIPOS>ATOM
   1 C1            -0.0013     1.3467     0.1566 C.ar    
   2 C2             0.0300    -0.0126     0.4202 C.ar    
   3 C3             1.2566    -0.6475     0.5755 C.ar    
   4 C4             2.4101     0.1079     0.4603 C.ar    
   5 C5             2.3033     1.4713     0.1939 C.ar    
   6 N6             1.1137     2.0405     0.0523 N.ar    
   7 C7             3.5316     2.2940     0.0676 C.2     
   8 N8             4.7853     1.8426     0.1878 N.2     
   9 N9             3.5646     3.5845    -0.1863 N.2     
  10 N10            4.9173     3.9596    -0.2205 N.pl3   
  11 C11            5.6325     2.8353     0.0186 C.2     
  12 C12            7.1077     2.7395     0.0796 C.ar    
  13 C13            5.4496     5.3016    -0.4698 C.3     
  14 C14            5.5416     6.0553     0.8318 C.2     
  15 O15            5.1965     5.5240     1.8660 O.2     
  16 N16            6.0074     7.3200     0.8468 N.am    
  17 C17            6.1054     8.0735     2.1060 C.3     
  18 C18            7.5206     8.6503     2.2193 C.3     
  19 N19            7.8298     9.4218     1.0081 N.3     
  20 C20            7.8335     8.5635    -0.1840 C.3     
  21 C21            6.4368     7.9810    -0.3950 C.3     
  22 C22            9.0354    10.0927     1.1408 C.ar    
  23 C23            9.5201    10.8870     0.1044 C.ar    
  24 N24            9.7447     9.9919     2.2628 N.ar    
  25 C25           10.7328    11.5389     0.2867 C.ar    
  26 N26           11.3840    11.3830     1.4363 N.ar    
  27 C27           10.8913    10.6271     2.3962 C.ar    
  28 C28            7.8749     3.8837     0.3004 C.ar    
  29 F29           -1.1198    -0.7141     0.5256 F       
  30 C30            9.2496     3.7890     0.3569 C.ar    
  31 C31            9.8691     2.5600     0.1947 C.ar    
  32 C32            9.1116     1.4205    -0.0253 C.ar    
  33 C33            7.7359     1.5037    -0.0778 C.ar    
  34 F34           11.2161     2.4724     0.2509 F       
  35 O35           11.2459    12.3226    -0.6930 O.3     
  36 C36           12.4978    12.9580    -0.4266 C.3     
  37 H37           -0.9520     1.8434     0.0307 H       
  38 H38            1.3082    -1.7064     0.7819 H       
  39 H39            3.3800    -0.3530     0.5755 H       
  40 H40            6.4416     5.2221    -0.9146 H       
  41 H41            4.7872     5.8342    -1.1521 H       
  42 H42            5.3781     8.8854     2.1045 H       
  43 H43            5.9130     7.4075     2.9472 H       
  44 H44            7.5789     9.3025     3.0907 H       
  45 H45            8.2377     7.8363     2.3250 H       
  46 H46            8.1187     9.1526    -1.0556 H       
  47 H47            8.5463     7.7507    -0.0448 H       
  48 H48            6.4616     7.2555    -1.2081 H       
  49 H49            5.7386     8.7823    -0.6365 H       
  50 H50            8.9674    10.9929    -0.8174 H       
  51 H51           11.4452    10.5216     3.3173 H       
  52 H52            7.3930     4.8420     0.4266 H       
  53 H53            9.8444     4.6742     0.5275 H       
  54 H54            9.5991     0.4651    -0.1518 H       
  55 H55            7.1464     0.6151    -0.2489 H       
  56 H56           12.3985    13.6056     0.4446 H       
  57 H57           13.2559    12.1996    -0.2311 H       
  58 H58           12.7939    13.5536    -1.2901 H       
@<TRIPOS>BOND
   1    1    2 ar
   2    1    6 ar
   3    1   37 1
   4    2    3 ar
   5    2   29 1
   6    3    4 ar
   7    3   38 1
   8    4    5 ar
   9    4   39 1
  10    5    6 ar
  11    5    7 1
  12    7    8 1
  13    7    9 2
  14    8   11 2
  15    9   10 1
  16   10   11 1
  17   10   13 1
  18   11   12 1
  19   12   28 ar
  20   12   33 ar
  21   13   14 1
  22   13   40 1
  23   13   41 1
  24   14   15 2
  25   14   16 am
  26   16   17 1
  27   16   21 1
  28   17   18 1
  29   17   42 1
  30   17   43 1
  31   18   19 1
  32   18   44 1
  33   18   45 1
  34   19   20 1
  35   19   22 1
  36   20   21 1
  37   20   46 1
  38   20   47 1
  39   21   48 1
  40   21   49 1
  41   22   23 ar
  42   22   24 ar
  43   23   25 ar
  44   23   50 1
  45   24   27 ar
  46   25   26 ar
  47   25   35 1
  48   26   27 ar
  49   27   51 1
  50   28   30 ar
  51   28   52 1
  52   30   31 ar
  53   30   53 1
  54   31   32 ar
  55   31   34 1
  56   32   33 ar
  57   32   54 1
  58   33   55 1
  59   35   36 1
  60   36   56 1
  61   36   57 1
  62   36   58 1

#	End of record

