#	Name: ASD01870137
#	Creating user name:	WinNT
#	Creation time:	15. 06. 2019 19:38

#	Modifying user name:	WinNT
#	Modification time:	15. 06. 2019 19:38

#	Program:	/corina/corina34_cracker 3.40 0067  02.08.2006

@<TRIPOS>MOLECULE
ASD01870137
  46   49    0    0    0
SMALL
NO_CHARGES


@<TRIPOS>ATOM
   1 C1             0.1274     1.4794    -0.5640 C.ar    
   2 C2             0.1508     0.0015    -0.5790 C.2     
   3 N3             1.1783    -0.6620    -0.0127 N.am    
   4 O4            -0.7566    -0.6155    -1.1022 O.2     
   5 C5             1.1472    -2.0585     0.0727 C.ar    
   6 C6             2.3225    -2.7881    -0.0517 C.ar    
   7 C7            -0.0580    -2.7145     0.2876 C.ar    
   8 C8            -0.0887    -4.0931     0.3724 C.ar    
   9 C9             1.0859    -4.8232     0.2423 C.ar    
  10 C10            2.2920    -4.1667     0.0321 C.ar    
  11 Cl11           3.7600    -5.0790    -0.1305 Cl      
  12 N12            1.0550    -6.2241     0.3289 N.am    
  13 C13            0.8753    -7.0122    -0.7383 C.2     
  14 C14            1.2083    -6.8820     1.4847 C.2     
  15 C15            1.1225    -8.3703     1.2255 C.3     
  16 C16            0.8944    -8.4595    -0.2972 C.3     
  17 O17            1.3878    -6.3670     2.5675 O.2     
  18 O18            0.7213    -6.6272    -1.8775 O.2     
  19 C19            2.1735    -9.0183     0.3219 C.3     
  20 C20            3.4704    -8.2431     0.0814 C.3     
  21 C21            2.3183   -10.5399     0.3884 C.3     
  22 C22            1.1677     2.1908     0.0358 C.ar    
  23 Cl23          -1.5950    -4.9128     0.6421 Cl      
  24 C24           -0.9325     2.1698    -1.1548 C.ar    
  25 C25           -0.9482     3.5489    -1.1372 C.ar    
  26 C26            0.0837     4.2481    -0.5362 C.ar    
  27 C27            1.1396     3.5702     0.0463 C.ar    
  28 C28           -2.0915     4.2959    -1.7744 C.3     
  29 H29            1.9392    -0.1715     0.3356 H       
  30 H30            3.2603    -2.2776    -0.2144 H       
  31 H31           -0.9712    -2.1468     0.3887 H       
  32 H32            0.5628    -8.9783     1.9364 H       
  33 H33            0.1604    -9.1344    -0.7375 H       
  34 H34            3.3713    -7.2351     0.4842 H       
  35 H35            4.2960    -8.7532     0.5777 H       
  36 H36            3.6679    -8.1887    -0.9892 H       
  37 H37            2.2815   -10.9528    -0.6197 H       
  38 H38            3.2722   -10.7943     0.8505 H       
  39 H39            1.5045   -10.9568     0.9817 H       
  40 H40            1.9925     1.6627     0.4909 H       
  41 H41           -1.7381     1.6253    -1.6248 H       
  42 H42            0.0669     5.3280    -0.5258 H       
  43 H43            1.9417     4.1219     0.5140 H       
  44 H44           -2.8759     4.4589    -1.0353 H       
  45 H45           -1.7358     5.2574    -2.1447 H       
  46 H46           -2.4897     3.7118    -2.6041 H       
@<TRIPOS>BOND
   1    1    2 1
   2    1   22 ar
   3    1   24 ar
   4    2    3 am
   5    2    4 2
   6    3    5 1
   7    3   29 1
   8    5    6 ar
   9    5    7 ar
  10    6   10 ar
  11    6   30 1
  12    7    8 ar
  13    7   31 1
  14    8    9 ar
  15    8   23 1
  16    9   10 ar
  17    9   12 1
  18   10   11 1
  19   12   13 am
  20   12   14 am
  21   13   18 2
  22   13   16 1
  23   14   17 2
  24   14   15 1
  25   15   16 1
  26   15   19 1
  27   15   32 1
  28   16   19 1
  29   16   33 1
  30   19   20 1
  31   19   21 1
  32   20   34 1
  33   20   35 1
  34   20   36 1
  35   21   37 1
  36   21   38 1
  37   21   39 1
  38   22   27 ar
  39   22   40 1
  40   24   25 ar
  41   24   41 1
  42   25   26 ar
  43   25   28 1
  44   26   27 ar
  45   26   42 1
  46   27   43 1
  47   28   44 1
  48   28   45 1
  49   28   46 1

#	End of record

