#	Name: ASD05430643
#	Creating user name:	WinNT
#	Creation time:	15. 06. 2019 21:00

#	Modifying user name:	WinNT
#	Modification time:	15. 06. 2019 21:00

#	Program:	/corina/corina34_cracker 3.40 0067  02.08.2006

@<TRIPOS>MOLECULE
ASD05430643
  37   38    0    0    0
SMALL
NO_CHARGES


@<TRIPOS>ATOM
   1 C1            -0.0168     1.3886     0.0097 C.ar    
   2 C2             0.0021    -0.0041     0.0020 C.ar    
   3 C3             1.2148    -0.6775    -0.0132 C.ar    
   4 C4             2.3995     0.0335    -0.0207 C.ar    
   5 C5             2.3802     1.4163    -0.0126 C.ar    
   6 C6             1.1760     2.0943     0.0021 C.ar    
   7 C7             3.6759     2.1860    -0.0203 C.3     
   8 C8             4.4943     1.8192     1.2192 C.3     
   9 C9             4.4709     1.8335    -1.2791 C.3     
  10 N10           -1.2021    -0.7239     0.0101 N.pl3   
  11 C11           -1.3423    -2.0635     0.0043 C.2     
  12 N12           -2.5015    -0.1912     0.0320 N.2     
  13 C13           -3.3262    -1.2061     0.0323 C.2     
  14 N14           -2.6221    -2.3371     0.0155 N.2     
  15 C15           -4.8301    -1.1116     0.0529 C.3     
  16 C16           -1.1447     3.4817     0.0264 C.3     
  17 O17           -1.2022     2.0539     0.0189 O.3     
  18 C18           -5.3579    -1.0648    -1.3825 C.3     
  19 H19            1.2329    -1.7573    -0.0188 H       
  20 H20            3.3430    -0.4920    -0.0325 H       
  21 H21            1.1644     3.1743     0.0087 H       
  22 H22            3.4635     3.2550    -0.0123 H       
  23 H23            5.4315     2.3759     1.2136 H       
  24 H24            3.9279     2.0703     2.1160 H       
  25 H25            4.7067     0.7501     1.2111 H       
  26 H26            3.8879     2.0947    -2.1622 H       
  27 H27            5.4081     2.3901    -1.2847 H       
  28 H28            4.6833     0.7644    -1.2872 H       
  29 H29           -0.5392    -2.7854    -0.0075 H       
  30 H30           -5.2419    -1.9824     0.5632 H       
  31 H31           -5.1301    -0.2060     0.5800 H       
  32 H32           -2.1568     3.8861     0.0334 H       
  33 H33           -0.6124     3.8193     0.9157 H       
  34 H34           -0.6208     3.8289    -0.8642 H       
  35 H35           -4.9461    -0.1941    -1.8928 H       
  36 H36           -5.0578    -1.9705    -1.9096 H       
  37 H37           -6.4456    -0.9965    -1.3676 H       
@<TRIPOS>BOND
   1    1    2 ar
   2    1    6 ar
   3    1   17 1
   4    2    3 ar
   5    2   10 1
   6    3    4 ar
   7    3   19 1
   8    4    5 ar
   9    4   20 1
  10    5    6 ar
  11    5    7 1
  12    6   21 1
  13    7    8 1
  14    7    9 1
  15    7   22 1
  16    8   23 1
  17    8   24 1
  18    8   25 1
  19    9   26 1
  20    9   27 1
  21    9   28 1
  22   10   11 1
  23   10   12 1
  24   11   14 2
  25   11   29 1
  26   12   13 2
  27   13   14 1
  28   13   15 1
  29   15   18 1
  30   15   30 1
  31   15   31 1
  32   16   17 1
  33   16   32 1
  34   16   33 1
  35   16   34 1
  36   18   35 1
  37   18   36 1
  38   18   37 1

#	End of record

