#	Name: ASD01915252
#	Creating user name:	WinNT
#	Creation time:	15. 06. 2019 20:05

#	Modifying user name:	WinNT
#	Modification time:	15. 06. 2019 20:05

#	Program:	/corina/corina34_cracker 3.40 0067  02.08.2006

@<TRIPOS>MOLECULE
ASD01915252
  54   57    0    0    0
SMALL
NO_CHARGES


@<TRIPOS>ATOM
   1 C1            -0.2563     1.3477    -0.4291 C.ar    
   2 C2            -0.2175    -0.0340    -0.4113 C.ar    
   3 C3            -1.3918    -0.7594    -0.4877 C.ar    
   4 C4            -2.6048    -0.1031    -0.5815 C.ar    
   5 C5            -2.6436     1.2786    -0.5983 C.ar    
   6 C6            -1.4696     2.0040    -0.5175 C.ar    
   7 C7             1.0239     2.1385    -0.3458 C.3     
   8 O8             1.5249     2.3738    -1.6632 O.3     
   9 C9             2.7431     3.1202    -1.6970 C.3     
  10 C10            3.1774     3.3083    -3.1278 C.2     
  11 N11            4.3080     3.9875    -3.4051 N.am    
  12 O12            2.5094     2.8486    -4.0297 O.2     
  13 C13            4.7499     4.1826    -4.7943 C.3     
  14 C14            5.0309     5.6734    -5.0108 C.3     
  15 N15            5.9734     6.1445    -3.9872 N.3     
  16 C16            5.3986     6.0293    -2.6403 C.3     
  17 C17            5.1294     4.5584    -2.3268 C.3     
  18 C18            6.3801     7.4526    -4.2467 C.ar    
  19 C19            5.4584     8.4892    -4.2085 C.ar    
  20 C20            5.8630     9.7847    -4.4658 C.ar    
  21 C21            7.1879    10.0575    -4.7631 C.ar    
  22 C22            8.1164     9.0360    -4.8052 C.ar    
  23 C23            7.7215     7.7263    -4.5413 C.ar    
  24 Cl24           7.6834    11.6899    -5.0846 Cl      
  25 C25            8.7137     6.6263    -4.5851 C.ar    
  26 N26            8.3538     5.4007    -4.2255 N.ar    
  27 C27            9.2058     4.3955    -4.2503 C.ar    
  28 C28           10.5141     4.5838    -4.6543 C.ar    
  29 C29           10.9326     5.8503    -5.0389 C.ar    
  30 C30           10.0161     6.8863    -5.0092 C.ar    
  31 H31            0.7302    -0.5468    -0.3380 H       
  32 H32           -1.3615    -1.8389    -0.4745 H       
  33 H33           -3.5221    -0.6699    -0.6419 H       
  34 H34           -3.5912     1.7913    -0.6719 H       
  35 H35           -1.4999     3.0835    -0.5306 H       
  36 H36            0.8305     3.0922     0.1452 H       
  37 H37            1.7610     1.5772     0.2284 H       
  38 H38            2.5853     4.0943    -1.2341 H       
  39 H39            3.5159     2.5792    -1.1509 H       
  40 H40            5.6592     3.6088    -4.9733 H       
  41 H41            3.9663     3.8547    -5.4773 H       
  42 H42            5.4641     5.8219    -6.0000 H       
  43 H43            4.0995     6.2341    -4.9333 H       
  44 H44            6.0983     6.4360    -1.9102 H       
  45 H45            4.4620     6.5851    -2.5957 H       
  46 H46            4.5988     4.4773    -1.3781 H       
  47 H47            6.0740     4.0176    -2.2687 H       
  48 H48            4.4237     8.2829    -3.9776 H       
  49 H49            5.1425    10.5887    -4.4355 H       
  50 H50            9.1485     9.2529    -5.0380 H       
  51 H51            8.8773     3.4113    -3.9506 H       
  52 H52           11.2045     3.7534    -4.6703 H       
  53 H53           11.9500     6.0223    -5.3581 H       
  54 H54           10.3077     7.8841    -5.3022 H       
@<TRIPOS>BOND
   1    1    2 ar
   2    1    7 1
   3    1    6 ar
   4    2    3 ar
   5    2   31 1
   6    3    4 ar
   7    3   32 1
   8    4    5 ar
   9    4   33 1
  10    5    6 ar
  11    5   34 1
  12    6   35 1
  13    7    8 1
  14    7   36 1
  15    7   37 1
  16    8    9 1
  17    9   10 1
  18    9   38 1
  19    9   39 1
  20   10   11 am
  21   10   12 2
  22   11   13 1
  23   11   17 1
  24   13   14 1
  25   13   40 1
  26   13   41 1
  27   14   15 1
  28   14   42 1
  29   14   43 1
  30   15   16 1
  31   15   18 1
  32   16   17 1
  33   16   44 1
  34   16   45 1
  35   17   46 1
  36   17   47 1
  37   18   19 ar
  38   18   23 ar
  39   19   20 ar
  40   19   48 1
  41   20   21 ar
  42   20   49 1
  43   21   22 ar
  44   21   24 1
  45   22   23 ar
  46   22   50 1
  47   23   25 1
  48   25   26 ar
  49   25   30 ar
  50   26   27 ar
  51   27   28 ar
  52   27   51 1
  53   28   29 ar
  54   28   52 1
  55   29   30 ar
  56   29   53 1
  57   30   54 1

#	End of record

