#	Name: ASD05842033
#	Creating user name:	WinNT
#	Creation time:	15. 06. 2019 21:04

#	Modifying user name:	WinNT
#	Modification time:	15. 06. 2019 21:04

#	Program:	/corina/corina34_cracker 3.40 0067  02.08.2006

@<TRIPOS>MOLECULE
ASD05842033
  64   67    0    0    0
SMALL
NO_CHARGES


@<TRIPOS>ATOM
   1 C1            -0.0975     0.9418    -0.3121 C.ar    
   2 C2             0.0403    -0.4330    -0.2684 C.ar    
   3 C3            -1.0587    -1.2448    -0.4784 C.ar    
   4 C4            -2.2956    -0.6819    -0.7317 C.ar    
   5 C5            -2.4335     0.6929    -0.7745 C.ar    
   6 C6            -1.3354     1.5048    -0.5601 C.ar    
   7 C7             1.1006     1.8268    -0.0832 C.3     
   8 N8             1.6602     2.2378    -1.3778 N.3     
   9 C9             2.7058     3.2542    -1.2004 C.3     
  10 C10            3.2218     3.6995    -2.5703 C.3     
  11 C11            4.2945     4.7422    -2.3883 C.ar    
  12 C12            5.6177     4.3595    -2.2717 C.ar    
  13 C13            6.6017     5.3160    -2.1047 C.ar    
  14 C14            6.2625     6.6551    -2.0549 C.ar    
  15 C15            4.9394     7.0379    -2.1725 C.ar    
  16 C16            3.9559     6.0817    -2.3438 C.ar    
  17 N17            0.2098     1.2091    -5.2171 N.3     
  18 C18            1.3472     1.3928    -6.1293 C.3     
  19 C19            1.0028     0.7972    -7.4964 C.3     
  20 N20           -0.2025     1.4522    -8.0236 N.3     
  21 C21           -1.3400     1.2684    -7.1114 C.3     
  22 C22           -0.9955     1.8640    -5.7443 C.3     
  23 C23            1.5896     0.8245    -3.2542 C.2     
  24 C24            0.5300     1.7011    -3.8705 C.3     
  25 O25            1.9500    -0.1834    -3.8246 O.2     
  26 N26            2.1369     1.1605    -2.0693 N.am    
  27 C27            3.1933     0.4059    -1.5474 C.ar    
  28 C28            3.0156    -0.9440    -1.2740 C.ar    
  29 C29            4.0604    -1.6861    -0.7589 C.ar    
  30 C30            5.2823    -1.0863    -0.5153 C.ar    
  31 C31            5.4623     0.2578    -0.7861 C.ar    
  32 C32            4.4234     1.0039    -1.3071 C.ar    
  33 H33            1.0066    -0.8729    -0.0705 H       
  34 H34           -0.9509    -2.3189    -0.4450 H       
  35 H35           -3.1540    -1.3161    -0.8964 H       
  36 H36           -3.3998     1.1328    -0.9727 H       
  37 H37           -1.4432     2.5789    -0.5936 H       
  38 H38            0.7976     2.7103     0.4786 H       
  39 H39            1.8549     1.2784     0.4810 H       
  40 H40            2.2921     4.1127    -0.6714 H       
  41 H41            3.5279     2.8327    -0.6220 H       
  42 H42            3.6356     2.8410    -3.0993 H       
  43 H43            2.3997     4.1211    -3.1487 H       
  44 H44            5.8827     3.3133    -2.3106 H       
  45 H45            7.6354     5.0169    -2.0129 H       
  46 H46            7.0312     7.4024    -1.9238 H       
  47 H47            4.6744     8.0841    -2.1332 H       
  48 H48            2.9222     6.3807    -2.4356 H       
  49 H49            1.5574     2.4568    -6.2386 H       
  50 H50            2.2241     0.8885    -5.7233 H       
  51 H51            1.8339     0.9581    -8.1830 H       
  52 H52            0.8192    -0.2721    -7.3914 H       
  53 H53           -0.0344     2.4314    -8.1992 H       
  54 H54           -2.2168     1.7728    -7.5174 H       
  55 H55           -1.5502     0.2044    -7.0020 H       
  56 H56           -1.8266     1.7031    -5.0577 H       
  57 H57           -0.8119     2.9333    -5.8493 H       
  58 H58            0.8982     2.7249    -3.9358 H       
  59 H59           -0.3670     1.6763    -3.2518 H       
  60 H60            2.0614    -1.4130    -1.4636 H       
  61 H61            3.9227    -2.7359    -0.5457 H       
  62 H62            6.0977    -1.6687    -0.1125 H       
  63 H63            6.4178     0.7234    -0.5944 H       
  64 H64            4.5661     2.0525    -1.5228 H       
@<TRIPOS>BOND
   1    1    2 ar
   2    1    7 1
   3    1    6 ar
   4    2    3 ar
   5    2   33 1
   6    3    4 ar
   7    3   34 1
   8    4    5 ar
   9    4   35 1
  10    5    6 ar
  11    5   36 1
  12    6   37 1
  13    7    8 1
  14    7   38 1
  15    7   39 1
  16    8    9 1
  17    8   26 1
  18    9   10 1
  19    9   40 1
  20    9   41 1
  21   10   11 1
  22   10   42 1
  23   10   43 1
  24   11   12 ar
  25   11   16 ar
  26   12   13 ar
  27   12   44 1
  28   13   14 ar
  29   13   45 1
  30   14   15 ar
  31   14   46 1
  32   15   16 ar
  33   15   47 1
  34   16   48 1
  35   17   18 1
  36   17   22 1
  37   17   24 1
  38   18   19 1
  39   18   49 1
  40   18   50 1
  41   19   20 1
  42   19   51 1
  43   19   52 1
  44   20   21 1
  45   20   53 1
  46   21   22 1
  47   21   54 1
  48   21   55 1
  49   22   56 1
  50   22   57 1
  51   23   24 1
  52   23   25 2
  53   23   26 am
  54   24   58 1
  55   24   59 1
  56   26   27 1
  57   27   28 ar
  58   27   32 ar
  59   28   29 ar
  60   28   60 1
  61   29   30 ar
  62   29   61 1
  63   30   31 ar
  64   30   62 1
  65   31   32 ar
  66   31   63 1
  67   32   64 1

#	End of record

