#	Name: ASD01811371
#	Creating user name:	WinNT
#	Creation time:	15. 06. 2019 19:26

#	Modifying user name:	WinNT
#	Modification time:	15. 06. 2019 19:26

#	Program:	/corina/corina34_cracker 3.40 0067  02.08.2006

@<TRIPOS>MOLECULE
ASD01811371
  42   43    0    0    0
SMALL
NO_CHARGES


@<TRIPOS>ATOM
   1 N1            -0.0160     1.3293     0.0094 N.am    
   2 C2             0.0021    -0.0041     0.0020 C.2     
   3 C3             1.2648    -0.8163     0.0341 C.3     
   4 C4             2.4571     0.0587    -0.3609 C.3     
   5 C5             2.3973     1.3561     0.4545 C.3     
   6 C6             1.1796     2.1630     0.0024 C.3     
   7 C7            -1.2150     1.9447     0.0183 C.2     
   8 O8            -1.2750     3.1578     0.0251 O.2     
   9 O9            -2.3460     1.2150     0.0195 O.3     
  10 O10           -1.0576    -0.5920    -0.0320 O.2     
  11 C11            3.7420    -0.6696    -0.0621 C.ar    
  12 C12            4.6301    -0.9478    -1.0860 C.ar    
  13 C13            5.8081    -1.6142    -0.8195 C.ar    
  14 C14            6.1037    -2.0077     0.4872 C.ar    
  15 C15            5.2032    -1.7233     1.5158 C.ar    
  16 C16            4.0310    -1.0520     1.2359 C.ar    
  17 C17            7.3245    -2.7003     0.7711 C.1     
  18 N18            8.2930    -3.2497     0.9963 N.1     
  19 C19           -3.6013     1.9447     0.0293 C.3     
  20 C20           -3.6855     2.8313    -1.2148 C.3     
  21 C21           -4.7671     0.9539     0.0293 C.3     
  22 C22           -3.6739     2.8177     1.2837 C.3     
  23 H23            1.4193    -1.2058     1.0403 H       
  24 H24            1.1784    -1.6477    -0.6654 H       
  25 H25            2.4052     0.2911    -1.4246 H       
  26 H26            2.3054     1.1180     1.5142 H       
  27 H27            3.3042     1.9366     0.2850 H       
  28 H28            1.3508     2.5389    -1.0063 H       
  29 H29            1.0349     3.0060     0.6780 H       
  30 H30            4.4002    -0.6429    -2.0962 H       
  31 H31            6.5001    -1.8314    -1.6198 H       
  32 H32            5.4257    -2.0249     2.5287 H       
  33 H33            3.3355    -0.8278     2.0311 H       
  34 H34           -3.6337     2.2093    -2.1084 H       
  35 H35           -4.6278     3.3791    -1.2074 H       
  36 H36           -2.8549     3.5372    -1.2148 H       
  37 H37           -4.7071     0.3222     0.9156 H       
  38 H38           -5.7094     1.5016     0.0367 H       
  39 H39           -4.7153     0.3319    -0.8643 H       
  40 H40           -2.8433     3.5236     1.2837 H       
  41 H41           -4.6163     3.3655     1.2910 H       
  42 H42           -3.6139     2.1861     2.1700 H       
@<TRIPOS>BOND
   1    1    2 am
   2    1    6 1
   3    1    7 am
   4    2    3 1
   5    2   10 2
   6    3    4 1
   7    3   23 1
   8    3   24 1
   9    4    5 1
  10    4   11 1
  11    4   25 1
  12    5    6 1
  13    5   26 1
  14    5   27 1
  15    6   28 1
  16    6   29 1
  17    7    8 2
  18    7    9 1
  19    9   19 1
  20   11   12 ar
  21   11   16 ar
  22   12   13 ar
  23   12   30 1
  24   13   14 ar
  25   13   31 1
  26   14   15 ar
  27   14   17 1
  28   15   16 ar
  29   15   32 1
  30   16   33 1
  31   17   18 3
  32   19   20 1
  33   19   22 1
  34   19   21 1
  35   20   34 1
  36   20   35 1
  37   20   36 1
  38   21   37 1
  39   21   38 1
  40   21   39 1
  41   22   40 1
  42   22   41 1
  43   22   42 1

#	End of record

