#	Name: ASD04910203
#	Creating user name:	WinNT
#	Creation time:	15. 06. 2019 20:55

#	Modifying user name:	WinNT
#	Modification time:	15. 06. 2019 20:55

#	Program:	/corina/corina34_cracker 3.40 0067  02.08.2006

@<TRIPOS>MOLECULE
ASD04910203
  30   31    0    0    0
SMALL
NO_CHARGES


@<TRIPOS>ATOM
   1 C1            -0.0168     1.3876     0.0097 C.ar    
   2 C2             0.0021    -0.0041     0.0020 C.ar    
   3 C3             1.2189    -0.6786    -0.0132 C.ar    
   4 C4             2.4062     0.0379    -0.0207 C.ar    
   5 C5             2.3821     1.4198    -0.0126 C.ar    
   6 C6             1.1756     2.0947     0.0021 C.ar    
   7 O7            -1.2025     2.0524     0.0189 O.3     
   8 C8             3.6753     2.1934    -0.0203 C.3     
   9 O9             1.2439    -2.0377    -0.0203 O.3     
  10 C10            2.5288    -2.6629    -0.0360 C.3     
  11 N11           -1.2029    -0.7249     0.0101 N.pl3   
  12 N12           -1.3289    -2.1201     0.0044 N.2     
  13 C13           -2.6043    -2.4158     0.0153 C.2     
  14 C14           -3.3306    -1.2206     0.0283 C.2     
  15 C15           -2.4462    -0.1956     0.0307 C.2     
  16 C16           -4.8323    -1.0959     0.0434 C.3     
  17 F17           -5.4062    -2.3718     0.0432 F       
  18 F18           -5.2313    -0.4053     1.1928 F       
  19 F19           -5.2535    -0.3949    -1.0916 F       
  20 H20            3.3512    -0.4847    -0.0325 H       
  21 H21            1.1620     3.1746     0.0080 H       
  22 H22           -1.5414     2.2399     0.9049 H       
  23 H23            3.9775     2.3858    -1.0498 H       
  24 H24            3.5351     3.1408     0.5003 H       
  25 H25            4.4488     1.6133     0.4830 H       
  26 H26            3.0890    -2.3643     0.8501 H       
  27 H27            2.4059    -3.7459    -0.0402 H       
  28 H28            3.0716    -2.3553    -0.9297 H       
  29 H29           -3.0233    -3.4112     0.0140 H       
  30 H30           -2.6905     0.8563     0.0439 H       
@<TRIPOS>BOND
   1    1    2 ar
   2    1    6 ar
   3    1    7 1
   4    2    3 ar
   5    2   11 1
   6    3    4 ar
   7    3    9 1
   8    4    5 ar
   9    4   20 1
  10    5    6 ar
  11    5    8 1
  12    6   21 1
  13    7   22 1
  14    8   23 1
  15    8   24 1
  16    8   25 1
  17    9   10 1
  18   10   26 1
  19   10   27 1
  20   10   28 1
  21   11   12 1
  22   11   15 1
  23   12   13 2
  24   13   14 1
  25   13   29 1
  26   14   15 2
  27   14   16 1
  28   15   30 1
  29   16   17 1
  30   16   18 1
  31   16   19 1

#	End of record

