#	Name: ASD00840131
#	Creating user name:	WinNT
#	Creation time:	15. 06. 2019 18:37

#	Modifying user name:	WinNT
#	Modification time:	15. 06. 2019 18:37

#	Program:	/corina/corina34_cracker 3.40 0067  02.08.2006

@<TRIPOS>MOLECULE
ASD00840131
  93   98    0    0    0
SMALL
NO_CHARGES


@<TRIPOS>ATOM
   1 N1             0.0337     1.3307     0.1169 N.3     
   2 C2            -0.4972     1.7331    -1.1930 C.3     
   3 C3             0.3966     1.1664    -2.2986 C.3     
   4 N4             0.4477    -0.2976    -2.1814 N.3     
   5 C5             0.9785    -0.7001    -0.8715 C.3     
   6 C6             0.0847    -0.1333     0.2341 C.3     
   7 N7            -2.1769     5.0900     3.1066 N.am    
   8 C8            -2.1946     3.7932     2.7550 C.2     
   9 C9            -0.8881     3.1871     3.2214 C.3     
  10 C10           -0.1606     4.3395     3.8752 C.ar    
  11 C11            1.0669     4.4421     4.4913 C.ar    
  12 C12            1.4798     5.6579     5.0109 C.ar    
  13 C13            0.6531     6.7670     4.9078 C.ar    
  14 C14           -0.5781     6.6635     4.2903 C.ar    
  15 C15           -0.9973     5.4426     3.7657 C.ar    
  16 O16           -3.0892     3.2167     2.1733 O.2     
  17 F17            1.0538     7.9538     5.4140 F       
  18 F18            2.6829     5.7630     5.6164 F       
  19 C19           -1.9777     1.0252     3.9006 C.ar    
  20 C20           -1.1429     2.0884     4.2209 C.ar    
  21 C21           -0.5481     2.1249     5.4698 C.ar    
  22 C22           -0.8107     1.0913     6.3587 C.ar    
  23 C23           -1.6508     0.0660     5.9731 C.ar    
  24 N24           -2.2035     0.0588     4.7748 N.ar    
  25 O25           -2.5713     0.9806     2.6815 O.3     
  26 C26           -3.4183    -0.1385     2.4128 C.3     
  27 C27           -3.9934    -0.0155     1.0004 C.3     
  28 S28           -3.4090     6.1497     2.7885 S.o2    
  29 O29           -2.8317     7.4482     2.7895 O.2     
  30 O30           -4.1209     5.6165     1.6803 O.2     
  31 C31           -4.5119     6.0945     4.1616 C.ar    
  32 C32           -5.2107     4.9288     4.4432 C.ar    
  33 C33           -6.0782     4.8860     5.5235 C.ar    
  34 C34           -6.2455     6.0084     6.3202 C.ar    
  35 C35           -5.5446     7.1713     6.0345 C.ar    
  36 C36           -4.6761     7.2097     4.9602 C.ar    
  37 O37           -7.0956     5.9697     7.3797 O.3     
  38 C38           -7.2186     7.1626     8.1568 C.3     
  39 O39           -5.0449     3.8305     3.6602 O.3     
  40 C40           -5.7959     2.6659     4.0089 C.3     
  41 C41           -0.1006     2.6632     2.0482 C.2     
  42 O42            1.0722     2.9483     1.9291 O.2     
  43 N43           -0.6996     1.8777     1.1313 N.am    
  44 N44            1.4244    -2.7458    -5.4732 N.3     
  45 C45            2.1420    -3.0110    -4.2198 C.3     
  46 C46            1.3721    -2.3947    -3.0495 C.3     
  47 C47            1.2362    -0.8859    -3.2723 C.3     
  48 C48            0.5287    -0.6367    -4.6072 C.3     
  49 C49            1.3231    -1.3040    -5.7323 C.3     
  50 C50            2.0604    -3.4399    -6.6009 C.3     
  51 C51            1.1561    -3.3483    -7.8317 C.3     
  52 H52           -1.5095     1.3462    -1.3096 H       
  53 H53           -0.5133     2.8209    -1.2603 H       
  54 H54           -0.0115     1.4393    -3.2718 H       
  55 H55            1.4023     1.5745    -2.1982 H       
  56 H56            0.9946    -1.7879    -0.8043 H       
  57 H57            1.9908    -0.3131    -0.7549 H       
  58 H58            0.4928    -0.4062     1.2073 H       
  59 H59           -0.9210    -0.5414     0.1337 H       
  60 H60            1.7068     3.5756     4.5694 H       
  61 H61           -1.2172     7.5307     4.2139 H       
  62 H62            0.1058     2.9387     5.7466 H       
  63 H63           -0.3622     1.0892     7.3411 H       
  64 H64           -1.8580    -0.7406     6.6606 H       
  65 H65           -2.8397    -1.0590     2.4906 H       
  66 H66           -4.2333    -0.1594     3.1364 H       
  67 H67           -4.6394    -0.8691     0.7955 H       
  68 H68           -4.5720     0.9050     0.9226 H       
  69 H69           -3.1784     0.0054     0.2768 H       
  70 H70           -6.6231     3.9800     5.7440 H       
  71 H71           -5.6747     8.0458     6.6548 H       
  72 H72           -4.1281     8.1145     4.7421 H       
  73 H73           -6.2460     7.4282     8.5712 H       
  74 H74           -7.5772     7.9737     7.5231 H       
  75 H75           -7.9263     6.9959     8.9689 H       
  76 H76           -5.5710     1.8644     3.3053 H       
  77 H77           -5.5289     2.3497     5.0173 H       
  78 H78           -6.8608     2.8952     3.9701 H       
  79 H79           -1.6514     1.7009     1.1917 H       
  80 H80            2.2281    -4.0874    -4.0713 H       
  81 H81            3.1379    -2.5708    -4.2714 H       
  82 H82            0.3810    -2.8443    -2.9889 H       
  83 H83            1.9130    -2.5782    -2.1212 H       
  84 H84            2.2262    -0.4302    -3.2930 H       
  85 H85           -0.4756    -1.0587    -4.5711 H       
  86 H86            0.4671     0.4357    -4.7918 H       
  87 H87            2.3228    -0.8718    -5.7768 H       
  88 H88            0.8144    -1.1405    -6.6824 H       
  89 H89            3.0207    -2.9730    -6.8200 H       
  90 H90            2.2163    -4.4871    -6.3418 H       
  91 H91            0.1959    -3.8152    -7.6126 H       
  92 H92            1.0002    -2.3011    -8.0909 H       
  93 H93            1.6281    -3.8633    -8.6684 H       
@<TRIPOS>BOND
   1    1    2 1
   2    1    6 1
   3    1   43 1
   4    2    3 1
   5    2   52 1
   6    2   53 1
   7    3    4 1
   8    3   54 1
   9    3   55 1
  10    4    5 1
  11    4   47 1
  12    5    6 1
  13    5   56 1
  14    5   57 1
  15    6   58 1
  16    6   59 1
  17    7    8 am
  18    7   15 1
  19    7   28 am
  20    8    9 1
  21    8   16 2
  22    9   10 1
  23    9   20 1
  24    9   41 1
  25   10   11 ar
  26   10   15 ar
  27   11   12 ar
  28   11   60 1
  29   12   13 ar
  30   12   18 1
  31   13   14 ar
  32   13   17 1
  33   14   15 ar
  34   14   61 1
  35   19   20 ar
  36   19   24 ar
  37   19   25 1
  38   20   21 ar
  39   21   22 ar
  40   21   62 1
  41   22   23 ar
  42   22   63 1
  43   23   24 ar
  44   23   64 1
  45   25   26 1
  46   26   27 1
  47   26   65 1
  48   26   66 1
  49   27   67 1
  50   27   68 1
  51   27   69 1
  52   28   29 2
  53   28   30 2
  54   28   31 1
  55   31   32 ar
  56   31   36 ar
  57   32   33 ar
  58   32   39 1
  59   33   34 ar
  60   33   70 1
  61   34   35 ar
  62   34   37 1
  63   35   36 ar
  64   35   71 1
  65   36   72 1
  66   37   38 1
  67   38   73 1
  68   38   74 1
  69   38   75 1
  70   39   40 1
  71   40   76 1
  72   40   77 1
  73   40   78 1
  74   41   42 2
  75   41   43 am
  76   43   79 1
  77   44   45 1
  78   44   49 1
  79   44   50 1
  80   45   46 1
  81   45   80 1
  82   45   81 1
  83   46   47 1
  84   46   82 1
  85   46   83 1
  86   47   48 1
  87   47   84 1
  88   48   49 1
  89   48   85 1
  90   48   86 1
  91   49   87 1
  92   49   88 1
  93   50   51 1
  94   50   89 1
  95   50   90 1
  96   51   91 1
  97   51   92 1
  98   51   93 1

#	End of record

