#	Name: ASD01884741
#	Creating user name:	WinNT
#	Creation time:	15. 06. 2019 19:48

#	Modifying user name:	WinNT
#	Modification time:	15. 06. 2019 19:48

#	Program:	/corina/corina34_cracker 3.40 0067  02.08.2006

@<TRIPOS>MOLECULE
ASD01884741
  52   55    0    0    0
SMALL
NO_CHARGES


@<TRIPOS>ATOM
   1 C1            -0.0170     1.3882     0.0431 C.2     
   2 C2             0.0019    -0.0042     0.0362 C.2     
   3 C3            -1.2135    -0.6983     0.0098 C.2     
   4 C4            -2.3898    -0.0118    -0.0090 C.2     
   5 N5            -2.4100     1.3457    -0.0023 N.am    
   6 C6            -1.2677     2.0576     0.0293 C.2     
   7 O7            -1.3080     3.2764     0.0350 O.2     
   8 C8            -3.6959     2.0473    -0.0236 C.3     
   9 C9             1.2062     2.1323     0.0699 C.1     
  10 N10            2.1766     2.7226     0.0911 N.1     
  11 C11           -4.1716     2.2839     1.4112 C.3     
  12 C12           -5.5146     3.0166     1.3889 C.3     
  13 C13           -6.0504     3.1430     2.8164 C.3     
  14 C14           -5.3245     4.4117     0.7901 C.3     
  15 N15           -1.2200    -2.1015     0.0024 N.pl3   
  16 C16           -2.4799    -2.8565     0.1198 C.3     
  17 C17           -2.2404    -3.9926     1.0849 C.2     
  18 C18           -1.0448    -4.3591     1.5422 C.2     
  19 C19            0.2505    -3.6753     1.1589 C.3     
  20 C20            0.0302    -2.8656    -0.1291 C.3     
  21 C21           -3.2907    -4.8941     1.6875 C.3     
  22 C22           -2.5369    -5.8476     2.5632 C.ar    
  23 C23           -1.1795    -5.4987     2.4534 C.ar    
  24 C24           -2.9602    -6.8889     3.3588 C.ar    
  25 C25           -1.9804    -7.5889     4.0557 C.ar    
  26 C26           -0.6416    -7.2568     3.9568 C.ar    
  27 C27           -0.2022    -6.2097     3.1579 C.ar    
  28 F28            0.2651    -7.9723     4.6576 F       
  29 H29            0.9394    -0.5402     0.0506 H       
  30 H30           -3.3221    -0.5565    -0.0300 H       
  31 H31           -3.5787     3.0052    -0.5303 H       
  32 H32           -4.4309     1.4427    -0.5550 H       
  33 H33           -4.2887     1.3260     1.9178 H       
  34 H34           -3.4366     2.8885     1.9426 H       
  35 H35           -6.2250     2.4547     0.7825 H       
  36 H36           -5.3399     3.7049     3.4227 H       
  37 H37           -7.0071     3.6650     2.8005 H       
  38 H38           -6.1858     2.1491     3.2429 H       
  39 H39           -4.9428     4.3217    -0.2269 H       
  40 H40           -6.2812     4.9337     0.7742 H       
  41 H41           -4.6141     4.9736     1.3965 H       
  42 H42           -3.2668    -2.2062     0.5017 H       
  43 H43           -2.7662    -3.2526    -0.8545 H       
  44 H44            0.5620    -3.0083     1.9627 H       
  45 H45            1.0219    -4.4261     0.9875 H       
  46 H46           -0.0436    -3.5423    -0.9804 H       
  47 H47            0.8635    -2.1790    -0.2782 H       
  48 H48           -3.9938    -4.3105     2.2818 H       
  49 H49           -3.8177    -5.4374     0.9031 H       
  50 H50           -4.0051    -7.1505     3.4378 H       
  51 H51           -2.2729    -8.4124     4.6903 H       
  52 H52            0.8448    -5.9554     3.0847 H       
@<TRIPOS>BOND
   1    1    2 2
   2    1    9 1
   3    1    6 1
   4    2    3 1
   5    2   29 1
   6    3    4 2
   7    3   15 1
   8    4    5 1
   9    4   30 1
  10    5    8 1
  11    5    6 am
  12    6    7 2
  13    8   11 1
  14    8   31 1
  15    8   32 1
  16    9   10 3
  17   11   12 1
  18   11   33 1
  19   11   34 1
  20   12   13 1
  21   12   14 1
  22   12   35 1
  23   13   36 1
  24   13   37 1
  25   13   38 1
  26   14   39 1
  27   14   40 1
  28   14   41 1
  29   15   16 1
  30   15   20 1
  31   16   17 1
  32   16   42 1
  33   16   43 1
  34   17   18 2
  35   17   21 1
  36   18   19 1
  37   18   23 1
  38   19   20 1
  39   19   44 1
  40   19   45 1
  41   20   46 1
  42   20   47 1
  43   21   22 1
  44   21   48 1
  45   21   49 1
  46   22   23 ar
  47   22   24 ar
  48   23   27 ar
  49   24   25 ar
  50   24   50 1
  51   25   26 ar
  52   25   51 1
  53   26   27 ar
  54   26   28 1
  55   27   52 1

#	End of record

