#	Name: ASD01840230
#	Creating user name:	WinNT
#	Creation time:	15. 06. 2019 19:37

#	Modifying user name:	WinNT
#	Modification time:	15. 06. 2019 19:37

#	Program:	/corina/corina34_cracker 3.40 0067  02.08.2006

@<TRIPOS>MOLECULE
ASD01840230
  53   56    0    0    0
SMALL
NO_CHARGES


@<TRIPOS>ATOM
   1 C1             0.3743     1.3596     1.1336 C.ar    
   2 C2             0.3500    -0.0297     1.0229 C.ar    
   3 N3             1.4073    -0.6948     0.6053 N.ar    
   4 C4             2.5450    -0.0783     0.2697 C.ar    
   5 C5             2.6383     1.3146     0.3566 C.ar    
   6 C6             1.5091     2.0407     0.8044 C.ar    
   7 S7             4.0653    -0.7513    -0.3065 S.3     
   8 C8             4.8093     0.8309    -0.4255 C.2     
   9 C9             3.9444     1.8054    -0.0472 C.2     
  10 C10            1.5599     3.5427     0.9158 C.3     
  11 N11            4.2779     3.1525    -0.0470 N.pl3   
  12 C12            6.1375     1.0617    -0.8583 C.2     
  13 O13            6.5726     2.1981    -0.9095 O.2     
  14 N14            6.9204     0.0237    -1.2138 N.am    
  15 C15            8.2947     0.2625    -1.6616 C.3     
  16 C16            8.9494    -1.0528    -1.9970 C.ar    
  17 C17            8.8641    -1.5585    -3.2810 C.ar    
  18 C18            9.4633    -2.7640    -3.5911 C.ar    
  19 C19           10.1512    -3.4672    -2.6128 C.ar    
  20 C20           10.2353    -2.9576    -1.3252 C.ar    
  21 C21            9.6391    -1.7489    -1.0217 C.ar    
  22 O22           -0.7785    -0.7063     1.3503 O.3     
  23 C23           -0.7440    -2.1286     1.2166 C.3     
  24 C24           -2.0765    -2.7037     1.6224 C.ar    
  25 C25           -3.0877    -2.8784     0.6900 C.ar    
  26 C26           -4.2964    -3.4092     1.0989 C.ar    
  27 N27           -4.4932    -3.7474     2.3582 N.ar    
  28 C28           -3.5545    -3.5954     3.2718 C.ar    
  29 C29           -2.3185    -3.0762     2.9358 C.ar    
  30 O30           10.7412    -4.6535    -2.9152 O.3     
  31 C31           11.4324    -5.3223    -1.8583 C.3     
  32 H32           -0.5009     1.8934     1.4734 H       
  33 H33            1.3489     3.9865    -0.0572 H       
  34 H34            0.8155     3.8789     1.6375 H       
  35 H35            2.5519     3.8492     1.2475 H       
  36 H36            5.2087     3.4217    -0.0004 H       
  37 H37            3.5803     3.8249    -0.0934 H       
  38 H38            6.5739    -0.8813    -1.1730 H       
  39 H39            8.2831     0.8987    -2.5466 H       
  40 H40            8.8553     0.7552    -0.8672 H       
  41 H41            8.3282    -1.0109    -4.0421 H       
  42 H42            9.3961    -3.1588    -4.5940 H       
  43 H43           10.7703    -3.5031    -0.5619 H       
  44 H44            9.7043    -1.3517    -0.0195 H       
  45 H45           -0.5356    -2.3911     0.1795 H       
  46 H46            0.0377    -2.5350     1.8584 H       
  47 H47           -2.9329    -2.6027    -0.3427 H       
  48 H48           -5.0892    -3.5484     0.3787 H       
  49 H49           -3.7525    -3.8835     4.2936 H       
  50 H50           -1.5536    -2.9545     3.6885 H       
  51 H51           11.8556    -6.2541    -2.2335 H       
  52 H52           12.2333    -4.6833    -1.4864 H       
  53 H53           10.7355    -5.5397    -1.0489 H       
@<TRIPOS>BOND
   1    1    2 ar
   2    1    6 ar
   3    1   32 1
   4    2    3 ar
   5    2   22 1
   6    3    4 ar
   7    4    5 ar
   8    4    7 1
   9    5    6 ar
  10    5    9 1
  11    6   10 1
  12    7    8 1
  13    8    9 2
  14    8   12 1
  15    9   11 1
  16   10   33 1
  17   10   34 1
  18   10   35 1
  19   11   36 1
  20   11   37 1
  21   12   13 2
  22   12   14 am
  23   14   15 1
  24   14   38 1
  25   15   16 1
  26   15   39 1
  27   15   40 1
  28   16   17 ar
  29   16   21 ar
  30   17   18 ar
  31   17   41 1
  32   18   19 ar
  33   18   42 1
  34   19   20 ar
  35   19   30 1
  36   20   21 ar
  37   20   43 1
  38   21   44 1
  39   22   23 1
  40   23   24 1
  41   23   45 1
  42   23   46 1
  43   24   25 ar
  44   24   29 ar
  45   25   26 ar
  46   25   47 1
  47   26   27 ar
  48   26   48 1
  49   27   28 ar
  50   28   29 ar
  51   28   49 1
  52   29   50 1
  53   30   31 1
  54   31   51 1
  55   31   52 1
  56   31   53 1

#	End of record

