#	Name: ASD01730016
#	Creating user name:	WinNT
#	Creation time:	15. 06. 2019 19:23

#	Modifying user name:	WinNT
#	Modification time:	15. 06. 2019 19:23

#	Program:	/corina/corina34_cracker 3.40 0067  02.08.2006

@<TRIPOS>MOLECULE
ASD01730016
  34   36    0    0    0
SMALL
NO_CHARGES


@<TRIPOS>ATOM
   1 N1            -0.0162     1.3436     0.0094 N.am    
   2 C2             0.1042     0.0181    -0.2031 C.2     
   3 S3             1.6319    -0.6519    -0.5878 S.2     
   4 N4            -0.9782    -0.7799    -0.1127 N.am    
   5 S5            -2.1779    -3.2960    -0.2461 S.3     
   6 C6            -0.8545    -2.1419    -0.3311 C.2     
   7 N7             0.2458    -2.7419    -0.6258 N.2     
   8 C8             0.2066    -4.0777    -0.8103 C.ar    
   9 C9            -1.0750    -4.6112    -0.6441 C.ar    
  10 C10            1.2627    -4.9541    -1.1367 C.ar    
  11 C11            1.0314    -6.2981    -1.2864 C.ar    
  12 C12           -0.2478    -6.8184    -1.1188 C.ar    
  13 C13           -1.2961    -5.9774    -0.7985 C.ar    
  14 O14           -0.4660    -8.1521    -1.2695 O.3     
  15 C15            0.6646    -8.9611    -1.6003 C.3     
  16 F16            1.6288    -8.8493    -0.5928 F       
  17 F17            0.2644   -10.2965    -1.7167 F       
  18 F18            1.2074    -8.5293    -2.8153 F       
  19 C19            1.1204     2.1588     0.0039 C.ar    
  20 C20            2.0710     2.0208    -0.9993 C.ar    
  21 C21            3.1918     2.8276    -1.0022 C.ar    
  22 C22            3.3683     3.7722    -0.0077 C.ar    
  23 C23            2.4239     3.9118     0.9928 C.ar    
  24 C24            1.2980     3.1120     0.9982 C.ar    
  25 H25           -0.8915     1.7327     0.1623 H       
  26 H26           -1.8438    -0.4003     0.1053 H       
  27 H27            2.2609    -4.5641    -1.2702 H       
  28 H28            1.8492    -6.9575    -1.5368 H       
  29 H29           -2.2895    -6.3805    -0.6678 H       
  30 H30            1.9339     1.2830    -1.7761 H       
  31 H31            3.9316     2.7205    -1.7818 H       
  32 H32            4.2457     4.4019    -0.0122 H       
  33 H33            2.5648     4.6502     1.7682 H       
  34 H34            0.5586     3.2247     1.7774 H       
@<TRIPOS>BOND
   1    1    2 am
   2    1   19 1
   3    1   25 1
   4    2    3 2
   5    2    4 am
   6    4    6 1
   7    4   26 1
   8    5    6 1
   9    5    9 1
  10    6    7 2
  11    7    8 1
  12    8    9 ar
  13    8   10 ar
  14    9   13 ar
  15   10   11 ar
  16   10   27 1
  17   11   12 ar
  18   11   28 1
  19   12   13 ar
  20   12   14 1
  21   13   29 1
  22   14   15 1
  23   15   16 1
  24   15   17 1
  25   15   18 1
  26   19   20 ar
  27   19   24 ar
  28   20   21 ar
  29   20   30 1
  30   21   22 ar
  31   21   31 1
  32   22   23 ar
  33   22   32 1
  34   23   24 ar
  35   23   33 1
  36   24   34 1

#	End of record

