#	Name: ASD01810591
#	Creating user name:	WinNT
#	Creation time:	15. 06. 2019 19:24

#	Modifying user name:	WinNT
#	Modification time:	15. 06. 2019 19:24

#	Program:	/corina/corina34_cracker 3.40 0067  02.08.2006

@<TRIPOS>MOLECULE
ASD01810591
  52   56    0    0    0
SMALL
NO_CHARGES


@<TRIPOS>ATOM
   1 N1            -0.0148     1.2929    -0.1153 N.pl3   
   2 N2             0.0045     0.0247    -0.3063 N.2     
   3 C3             1.1025    -0.6723    -0.4460 C.2     
   4 C4             2.4172     0.0121    -0.3852 C.2     
   5 C5             2.3877     1.4700    -0.1662 C.ar    
   6 C6             3.5428     2.2367    -0.0883 C.ar    
   7 C7             3.4434     3.5979     0.1181 C.ar    
   8 C8             2.1994     4.1961     0.2469 C.ar    
   9 C9             1.0437     3.4452     0.1718 C.ar    
  10 C10            1.1218     2.0717    -0.0346 C.ar    
  11 N11            2.7720    -2.1582    -0.7216 N.am    
  12 N12            3.3361    -0.8916    -0.5497 N.2     
  13 C13            1.4247    -2.0837    -0.6677 C.2     
  14 O14            0.6349    -3.0064    -0.7805 O.2     
  15 C15           -1.3160     1.9525     0.0188 C.3     
  16 C16           -2.8947     0.2776     1.0156 C.ar    
  17 C17           -2.4138     0.9276    -0.1055 C.ar    
  18 C18           -2.9545     0.6251    -1.3456 C.ar    
  19 C19           -3.9632    -0.3242    -1.4121 C.ar    
  20 C20           -4.3929    -0.9327    -0.2483 C.ar    
  21 N21           -3.8551    -0.6202     0.9147 N.ar    
  22 C22           -5.4885    -1.9657    -0.3086 C.3     
  23 C23            3.5339    -3.3919    -0.9311 C.3     
  24 C24            4.3756    -3.2619    -2.2021 C.3     
  25 C25            5.1713    -4.5503    -2.4209 C.3     
  26 C26            6.0913    -4.7913    -1.2224 C.3     
  27 C27            5.2496    -4.9212     0.0486 C.3     
  28 C28            4.4539    -3.6329     0.2674 C.3     
  29 O29            3.5163    -3.0368    -3.3215 O.3     
  30 Cl30          -0.5045     4.2130     0.3364 Cl      
  31 H31            4.5122     1.7712    -0.1882 H       
  32 H32            4.3384     4.1992     0.1799 H       
  33 H33            2.1338     5.2620     0.4081 H       
  34 H34           -1.3794     2.4364     0.9934 H       
  35 H35           -1.4268     2.7006    -0.7662 H       
  36 H36           -2.4757     0.5044     1.9849 H       
  37 H37           -2.5988     1.1173    -2.2388 H       
  38 H38           -4.4077    -0.5843    -2.3614 H       
  39 H39           -5.0493    -2.9533    -0.4496 H       
  40 H40           -6.0549    -1.9495     0.6226 H       
  41 H41           -6.1538    -1.7414    -1.1424 H       
  42 H42            2.8457    -4.2307    -1.0353 H       
  43 H43            5.0638    -2.4231    -2.0980 H       
  44 H44            4.4830    -5.3891    -2.5251 H       
  45 H45            5.7709    -4.4577    -3.3264 H       
  46 H46            6.6581    -5.7091    -1.3783 H       
  47 H47            6.7795    -3.9525    -1.1182 H       
  48 H48            4.5613    -5.7600    -0.0556 H       
  49 H49            5.9050    -5.0929     0.9025 H       
  50 H50            5.1421    -2.7941     0.3716 H       
  51 H51            3.8543    -3.7255     1.1729 H       
  52 H52            3.9831    -2.9444    -4.1634 H       
@<TRIPOS>BOND
   1    1    2 1
   2    1   10 1
   3    1   15 1
   4    2    3 2
   5    3    4 1
   6    3   13 1
   7    4    5 1
   8    4   12 2
   9    5    6 ar
  10    5   10 ar
  11    6    7 ar
  12    6   31 1
  13    7    8 ar
  14    7   32 1
  15    8    9 ar
  16    8   33 1
  17    9   10 ar
  18    9   30 1
  19   11   12 1
  20   11   13 am
  21   11   23 1
  22   13   14 2
  23   15   17 1
  24   15   34 1
  25   15   35 1
  26   16   17 ar
  27   16   21 ar
  28   16   36 1
  29   17   18 ar
  30   18   19 ar
  31   18   37 1
  32   19   20 ar
  33   19   38 1
  34   20   21 ar
  35   20   22 1
  36   22   39 1
  37   22   40 1
  38   22   41 1
  39   23   24 1
  40   23   28 1
  41   23   42 1
  42   24   25 1
  43   24   29 1
  44   24   43 1
  45   25   26 1
  46   25   44 1
  47   25   45 1
  48   26   27 1
  49   26   46 1
  50   26   47 1
  51   27   28 1
  52   27   48 1
  53   27   49 1
  54   28   50 1
  55   28   51 1
  56   29   52 1

#	End of record

