#	Name: ASD01885421
#	Creating user name:	WinNT
#	Creation time:	15. 06. 2019 19:49

#	Modifying user name:	WinNT
#	Modification time:	15. 06. 2019 19:49

#	Program:	/corina/corina34_cracker 3.40 0067  02.08.2006

@<TRIPOS>MOLECULE
ASD01885421
  39   41    0    0    0
SMALL
NO_CHARGES


@<TRIPOS>ATOM
   1 C1            -0.0387     1.4163     0.0072 C.ar    
   2 C2            -0.0161     0.0212     0.0396 C.ar    
   3 N3            -1.1309    -0.7515     0.0521 N.2     
   4 C4            -2.1916    -0.5690    -0.6469 C.2     
   5 C5            -2.3338     0.6050    -1.5799 C.3     
   6 C6            -2.2859     1.8674    -0.7567 C.2     
   7 N7            -1.2071     2.1667    -0.0335 N.am    
   8 C8             1.1626     2.1209     0.0092 C.ar    
   9 C9             2.3797     1.4479     0.0380 C.ar    
  10 C10            2.4001     0.0509     0.0648 C.ar    
  11 C11            1.2209    -0.6499     0.0655 C.ar    
  12 C12           -3.2989    -1.5331    -0.5343 C.ar    
  13 O13           -3.2382     2.6186    -0.7542 O.2     
  14 C14           -3.1337    -2.7076     0.2074 C.ar    
  15 C15           -4.1710    -3.6122     0.3131 C.ar    
  16 C16           -5.3777    -3.3655    -0.3111 C.ar    
  17 C17           -5.5580    -2.1961    -1.0553 C.ar    
  18 C18           -4.5184    -1.2750    -1.1625 C.ar    
  19 C19           -6.8103    -1.9430    -1.7019 C.1     
  20 N20           -7.8038    -1.7423    -2.2149 N.1     
  21 C21            3.6482     2.2086     0.0399 C.2     
  22 C22            3.6263     3.5404     0.0138 C.2     
  23 O23            4.8358     1.5491     0.0680 O.3     
  24 C24            6.0212     2.3471     0.0681 C.3     
  25 H25           -1.5154     0.6039    -2.2999 H       
  26 H26           -3.2869     0.5442    -2.1052 H       
  27 H27           -1.2405     2.9705     0.5085 H       
  28 H28            1.1491     3.2006    -0.0122 H       
  29 H29            3.3426    -0.4761     0.0846 H       
  30 H30            1.2418    -1.7295     0.0864 H       
  31 H31           -2.1925    -2.9072     0.6980 H       
  32 H32           -4.0380    -4.5176     0.8866 H       
  33 H33           -6.1844    -4.0783    -0.2244 H       
  34 H34           -4.6523    -0.3698    -1.7363 H       
  35 H35            4.5525     4.0959     0.0152 H       
  36 H36            2.6823     4.0647    -0.0086 H       
  37 H37            6.0473     2.9590    -0.8336 H       
  38 H38            6.0241     2.9933     0.9458 H       
  39 H39            6.8963     1.6978     0.0920 H       
@<TRIPOS>BOND
   1    1    2 ar
   2    1    8 ar
   3    1    7 1
   4    2    3 1
   5    2   11 ar
   6    3    4 2
   7    4    5 1
   8    4   12 1
   9    5    6 1
  10    5   25 1
  11    5   26 1
  12    6    7 am
  13    6   13 2
  14    7   27 1
  15    8    9 ar
  16    8   28 1
  17    9   10 ar
  18    9   21 1
  19   10   11 ar
  20   10   29 1
  21   11   30 1
  22   12   14 ar
  23   12   18 ar
  24   14   15 ar
  25   14   31 1
  26   15   16 ar
  27   15   32 1
  28   16   17 ar
  29   16   33 1
  30   17   18 ar
  31   17   19 1
  32   18   34 1
  33   19   20 3
  34   21   22 2
  35   21   23 1
  36   22   35 1
  37   22   36 1
  38   23   24 1
  39   24   37 1
  40   24   38 1
  41   24   39 1

#	End of record

