#	Name: ASD01820121
#	Creating user name:	WinNT
#	Creation time:	15. 06. 2019 19:36

#	Modifying user name:	WinNT
#	Modification time:	15. 06. 2019 19:36

#	Program:	/corina/corina34_cracker 3.40 0067  02.08.2006

@<TRIPOS>MOLECULE
ASD01820121
  66   69    0    0    0
SMALL
NO_CHARGES


@<TRIPOS>ATOM
   1 C1            -0.1302     1.6937     0.1691 C.3     
   2 C2            -0.1342     0.1719     0.0110 C.3     
   3 C3             0.7651    -0.4542     1.0787 C.3     
   4 C4            -1.5617    -0.3540     0.1741 C.3     
   5 N5            -2.0693     0.0140     1.4982 N.am    
   6 C6            -1.7984    -0.7651     2.5641 C.2     
   7 O7            -1.0694    -1.7311     2.4419 O.2     
   8 C8            -2.3844    -0.4470     3.8756 C.2     
   9 C9            -2.0222    -1.1614     4.9981 C.2     
  10 N10           -2.5358    -0.8993     6.2096 N.pl3   
  11 C11           -3.4598     0.0981     6.4292 C.ar    
  12 N12           -3.9349     0.3144     7.6498 N.ar    
  13 C13           -4.8223     1.2655     7.8887 C.ar    
  14 N14           -5.2863     1.4506     9.1812 N.3     
  15 C15           -6.7484     1.2019     9.2627 C.3     
  16 C16           -6.9786     0.9321    10.7709 C.3     
  17 H17           -7.0380     1.8685    11.3256 H       
  18 O18           -8.1594     0.1524    10.9707 O.3     
  19 C19           -5.7172     0.1353    11.1761 C.3     
  20 H20           -5.9254    -0.9345    11.1638 H       
  21 O21           -5.2713     0.5382    12.4725 O.3     
  22 C22           -4.6608     0.4865    10.1121 C.3     
  23 C23           -5.3022     2.0885     6.8651 C.ar    
  24 F24           -6.2084     3.0537     7.1341 F       
  25 C25           -4.8440     1.9069     5.5871 C.ar    
  26 C26           -3.9048     0.8938     5.3589 C.ar    
  27 C27           -3.3636     0.6438     4.0143 C.2     
  28 O28           -3.7141     1.3088     3.0545 O.2     
  29 C29           -2.1139    -1.6745     7.2989 C.ar    
  30 C30           -2.7929    -2.8424     7.6271 C.ar    
  31 F31           -3.8605    -3.2319     6.8965 F       
  32 C32           -2.3741    -3.6054     8.7022 C.ar    
  33 C33           -1.2796    -3.2070     9.4512 C.ar    
  34 F34           -0.8726    -3.9545    10.5003 F       
  35 C35           -0.6014    -2.0442     9.1266 C.ar    
  36 C36           -1.0124    -1.2799     8.0495 C.ar    
  37 F37           -0.3470    -0.1482     7.7303 F       
  38 C38           -2.4575     0.2593    -0.9040 C.3     
  39 C39           -1.8640    -0.0285    -2.2845 C.3     
  40 C40           -3.8570    -0.3523    -0.8129 C.3     
  41 H41            0.8965     2.0590     0.1428 H       
  42 H42           -0.6974     2.1451    -0.6448 H       
  43 H43           -0.5866     1.9612     1.1221 H       
  44 H44            0.2392    -0.0915    -0.9786 H       
  45 H45            0.7622    -1.5383     0.9660 H       
  46 H46            1.7821    -0.0795     0.9625 H       
  47 H47            0.3918    -0.1907     2.0683 H       
  48 H48           -1.5628    -1.4393     0.0733 H       
  49 H49           -2.6004     0.8182     1.6077 H       
  50 H50           -1.3011    -1.9592     4.8986 H       
  51 H51           -7.3067     2.0804     8.9394 H       
  52 H52           -7.0239     0.3299     8.6695 H       
  53 H53           -8.9698     0.5794    10.6607 H       
  54 H54           -4.4820     0.0715    12.7796 H       
  55 H55           -4.3648    -0.4128     9.5718 H       
  56 H56           -3.7913     0.9402    10.5878 H       
  57 H57           -5.1973     2.5283     4.7775 H       
  58 H58           -2.9014    -4.5126     8.9578 H       
  59 H59            0.2519    -1.7360     9.7126 H       
  60 H60           -2.5215     1.3370    -0.7534 H       
  61 H61           -2.5478     0.3272    -3.0553 H       
  62 H62           -0.9073     0.4844    -2.3828 H       
  63 H63           -1.7142    -1.1020    -2.3990 H       
  64 H64           -4.2797    -0.1473     0.1707 H       
  65 H65           -4.4951     0.0846    -1.5809 H       
  66 H66           -3.7930    -1.4300    -0.9634 H       
@<TRIPOS>BOND
   1    1    2 1
   2    1   41 1
   3    1   42 1
   4    1   43 1
   5    2    3 1
   6    2    4 1
   7    2   44 1
   8    3   45 1
   9    3   46 1
  10    3   47 1
  11    4    5 1
  12    4   38 1
  13    4   48 1
  14    5    6 am
  15    5   49 1
  16    6    7 2
  17    6    8 1
  18    8   27 1
  19    8    9 2
  20    9   10 1
  21    9   50 1
  22   10   11 1
  23   10   29 1
  24   11   26 ar
  25   11   12 ar
  26   12   13 ar
  27   13   14 1
  28   13   23 ar
  29   14   22 1
  30   14   15 1
  31   15   16 1
  32   15   51 1
  33   15   52 1
  34   16   17 1
  35   16   18 1
  36   16   19 1
  37   18   53 1
  38   19   20 1
  39   19   21 1
  40   19   22 1
  41   21   54 1
  42   22   55 1
  43   22   56 1
  44   23   24 1
  45   23   25 ar
  46   25   26 ar
  47   25   57 1
  48   26   27 1
  49   27   28 2
  50   29   36 ar
  51   29   30 ar
  52   30   31 1
  53   30   32 ar
  54   32   33 ar
  55   32   58 1
  56   33   34 1
  57   33   35 ar
  58   35   36 ar
  59   35   59 1
  60   36   37 1
  61   38   39 1
  62   38   40 1
  63   38   60 1
  64   39   61 1
  65   39   62 1
  66   39   63 1
  67   40   64 1
  68   40   65 1
  69   40   66 1

#	End of record

