#	Name: ASD01328027
#	Creating user name:	WinNT
#	Creation time:	15. 06. 2019 19:16

#	Modifying user name:	WinNT
#	Modification time:	15. 06. 2019 19:16

#	Program:	/corina/corina34_cracker 3.40 0067  02.08.2006

@<TRIPOS>MOLECULE
ASD01328027
  49   50    0    0    0
SMALL
NO_CHARGES


@<TRIPOS>ATOM
   1 C1            -0.0764     1.4769     0.1885 C.2     
   2 C2            -0.0465    -0.0296     0.1631 C.3     
   3 C3             1.4052    -0.5101     0.1121 C.3     
   4 C4             1.4356    -2.0396     0.0862 C.3     
   5 O5             0.9573     2.1021     0.1680 O.2     
   6 O6            -1.2516     2.1242     0.2284 O.3     
   7 O7             2.7914    -2.4883     0.0386 O.3     
   8 C8             2.9963    -3.8323     0.0106 C.ar    
   9 C9             4.2881    -4.3360    -0.0360 C.ar    
  10 C10            4.4968    -5.7005    -0.0645 C.ar    
  11 C11            3.4133    -6.5688    -0.0464 C.ar    
  12 C12            2.1209    -6.0642     0.0002 C.ar    
  13 C13            1.9138    -4.6990     0.0344 C.ar    
  14 C14            5.9001    -6.2474    -0.1156 C.3     
  15 C15            5.4639    -3.3935    -0.0561 C.3     
  16 N16            3.6244    -7.9539    -0.0757 N.am    
  17 C17            2.6704    -8.7707    -0.5647 C.2     
  18 O18            1.5991    -8.3139    -0.9130 O.2     
  19 N19            2.9042   -10.0940    -0.6677 N.am    
  20 C20            1.9502   -10.9109    -1.1567 C.2     
  21 C21            2.2063   -12.3604    -1.2694 C.ar    
  22 C22            1.2188   -13.2105    -1.7763 C.ar    
  23 C23            1.4653   -14.5649    -1.8787 C.ar    
  24 C24            2.6872   -15.0808    -1.4808 C.ar    
  25 C25            3.6692   -14.2430    -0.9778 C.ar    
  26 C26            3.4381   -12.8877    -0.8755 C.ar    
  27 O27            0.8791   -10.4541    -1.5048 O.2     
  28 Cl28           2.9895   -16.7852    -1.6122 Cl      
  29 Cl29          -0.3135   -12.5647    -2.2749 Cl      
  30 H30           -0.5263    -0.4178     1.0615 H       
  31 H31           -0.5792    -0.3888    -0.7174 H       
  32 H32            1.8850    -0.1219    -0.7864 H       
  33 H33            1.9379    -0.1509     0.9926 H       
  34 H34            0.9557    -2.4277     0.9847 H       
  35 H35            0.9028    -2.3987    -0.7943 H       
  36 H36           -1.2202     3.0906     0.2435 H       
  37 H37            1.2778    -6.7389     0.0139 H       
  38 H38            0.9085    -4.3064     0.0751 H       
  39 H39            6.2694    -6.3960     0.8991 H       
  40 H40            5.8997    -7.2001    -0.6452 H       
  41 H41            6.5463    -5.5418    -0.6377 H       
  42 H42            5.7781    -3.1826     0.9661 H       
  43 H43            6.2881    -3.8524    -0.6022 H       
  44 H44            5.1759    -2.4638    -0.5468 H       
  45 H45            4.4571    -8.3247     0.2559 H       
  46 H46            3.7591   -10.4586    -0.3898 H       
  47 H47            0.7037   -15.2233    -2.2697 H       
  48 H48            4.6198   -14.6521    -0.6690 H       
  49 H49            4.2066   -12.2356    -0.4874 H       
@<TRIPOS>BOND
   1    1    2 1
   2    1    5 2
   3    1    6 1
   4    2    3 1
   5    2   30 1
   6    2   31 1
   7    3    4 1
   8    3   32 1
   9    3   33 1
  10    4    7 1
  11    4   34 1
  12    4   35 1
  13    6   36 1
  14    7    8 1
  15    8    9 ar
  16    8   13 ar
  17    9   10 ar
  18    9   15 1
  19   10   11 ar
  20   10   14 1
  21   11   12 ar
  22   11   16 1
  23   12   13 ar
  24   12   37 1
  25   13   38 1
  26   14   39 1
  27   14   40 1
  28   14   41 1
  29   15   42 1
  30   15   43 1
  31   15   44 1
  32   16   17 am
  33   16   45 1
  34   17   18 2
  35   17   19 am
  36   19   20 am
  37   19   46 1
  38   20   21 1
  39   20   27 2
  40   21   22 ar
  41   21   26 ar
  42   22   23 ar
  43   22   29 1
  44   23   24 ar
  45   23   47 1
  46   24   25 ar
  47   24   28 1
  48   25   26 ar
  49   25   48 1
  50   26   49 1

#	End of record

