#	Name: ASD04560177
#	Creating user name:	WinNT
#	Creation time:	15. 06. 2019 20:49

#	Modifying user name:	WinNT
#	Modification time:	15. 06. 2019 20:49

#	Program:	/corina/corina34_cracker 3.40 0067  02.08.2006

@<TRIPOS>MOLECULE
ASD04560177
  47   49    0    0    0
SMALL
NO_CHARGES


@<TRIPOS>ATOM
   1 C1             0.0903     1.0511    -0.4185 C.ar    
   2 C2             0.2240    -0.3103    -0.4028 C.ar    
   3 C3             1.4979    -0.8718    -0.3183 C.ar    
   4 N4             2.5782    -0.1042    -0.2526 N.ar    
   5 C5             2.4935     1.2095    -0.2649 C.ar    
   6 C6             1.2503     1.8390    -0.3483 C.ar    
   7 C7             1.1567     3.3107    -0.3619 C.2     
   8 O8             0.0692     3.8502    -0.4348 O.2     
   9 N9             2.2764     4.0578    -0.2936 N.am    
  10 C10            2.1985     5.4490    -0.4260 C.ar    
  11 C11            3.0605     6.2653     0.2945 C.ar    
  12 C12            1.1883     7.3877    -1.4119 C.ar    
  13 C13            1.2631     6.0147    -1.2824 C.ar    
  14 S14            1.6752    -2.6248    -0.2978 S.3     
  15 C15            2.9823     7.6378     0.1620 C.ar    
  16 C16            2.0453     8.2001    -0.6886 C.ar    
  17 F17            1.9705     9.5429    -0.8167 F       
  18 C18            3.4766    -2.7572    -0.1817 C.3     
  19 C19            3.8723    -4.2109    -0.1488 C.ar    
  20 C20            4.0322    -4.9083    -1.3250 C.ar    
  21 C21            4.3978    -6.2496    -1.2954 C.ar    
  22 C22            4.6029    -6.8902    -0.0788 C.ar    
  23 C23            4.4440    -6.1978     1.1009 C.ar    
  24 C24            4.0827    -4.8502     1.0742 C.ar    
  25 B25            3.9007    -4.0579     2.4173 Du      
  26 O26            4.7182    -4.3625     3.5377 O.3     
  27 O27            2.9185    -3.0367     2.5118 O.3     
  28 O28            4.5543    -6.9345    -2.4561 O.3     
  29 C29            4.9309    -8.3091    -2.3526 C.3     
  30 F30            3.9551    -9.0070    -1.6329 F       
  31 F31            5.0473    -8.8585    -3.6340 F       
  32 F32            6.1588    -8.4076    -1.6896 F       
  33 H33           -0.8852     1.5094    -0.4878 H       
  34 H34           -0.6488    -0.9444    -0.4550 H       
  35 H35            3.3929     1.8048    -0.2100 H       
  36 H36            3.1361     3.6314    -0.1528 H       
  37 H37            3.7912     5.8272     0.9582 H       
  38 H38            0.4610     7.8280    -2.0779 H       
  39 H39            0.5949     5.3815    -1.8470 H       
  40 H40            3.6522     8.2731     0.7224 H       
  41 H41            3.9328    -2.2760    -1.0468 H       
  42 H42            3.8190    -2.2667     0.7295 H       
  43 H43            3.8732    -4.4133    -2.2716 H       
  44 H44            4.8868    -7.9321    -0.0589 H       
  45 H45            4.6028    -6.6963     2.0458 H       
  46 H46            4.5327    -3.8227     4.3183 H       
  47 H47            2.8809    -2.6059     3.3767 H       
@<TRIPOS>BOND
   1    1    2 ar
   2    1    6 ar
   3    1   33 1
   4    2    3 ar
   5    2   34 1
   6    3    4 ar
   7    3   14 1
   8    4    5 ar
   9    5    6 ar
  10    5   35 1
  11    6    7 1
  12    7    8 2
  13    7    9 am
  14    9   10 1
  15    9   36 1
  16   10   11 ar
  17   10   13 ar
  18   11   15 ar
  19   11   37 1
  20   12   13 ar
  21   12   16 ar
  22   12   38 1
  23   13   39 1
  24   14   18 1
  25   15   16 ar
  26   15   40 1
  27   16   17 1
  28   18   19 1
  29   18   41 1
  30   18   42 1
  31   19   20 ar
  32   19   24 ar
  33   20   21 ar
  34   20   43 1
  35   21   22 ar
  36   21   28 1
  37   22   23 ar
  38   22   44 1
  39   23   24 ar
  40   23   45 1
  41   24   25 1
  42   25   26 1
  43   25   27 1
  44   26   46 1
  45   27   47 1
  46   28   29 1
  47   29   30 1
  48   29   31 1
  49   29   32 1

#	End of record

