#	Name: ASD01880327
#	Creating user name:	WinNT
#	Creation time:	15. 06. 2019 19:40

#	Modifying user name:	WinNT
#	Modification time:	15. 06. 2019 19:40

#	Program:	/corina/corina34_cracker 3.40 0067  02.08.2006

@<TRIPOS>MOLECULE
ASD01880327
  41   44    0    0    0
SMALL
NO_CHARGES


@<TRIPOS>ATOM
   1 C1            -0.2200     0.9054     1.7409 C.ar    
   2 N2            -0.1359    -0.2818     1.1686 N.ar    
   3 C3            -1.1908    -0.8445     0.5975 C.ar    
   4 C4            -2.4279    -0.1505     0.6066 C.ar    
   5 C5            -2.4616     1.1023     1.2255 C.ar    
   6 N6            -1.3426     1.5851     1.7799 N.ar    
   7 C7            -3.7206    -0.5236     0.0644 C.2     
   8 C8            -4.6760     0.3669     0.2486 C.2     
   9 S9            -4.0832     1.7711     1.1156 S.3     
  10 C10            1.0122     1.4970     2.3756 C.3     
  11 C11           -6.0965     0.1989    -0.2258 C.3     
  12 N12           -1.0872    -2.0893     0.0012 N.pl3   
  13 C13            0.1592    -2.7101    -0.1074 C.ar    
  14 C14            0.2569    -4.0932    -0.0067 C.ar    
  15 C15            1.4861    -4.7079    -0.1136 C.ar    
  16 C16            2.6317    -3.9416    -0.3233 C.ar    
  17 C17            2.5314    -2.5548    -0.4244 C.ar    
  18 C18            1.2996    -1.9445    -0.3218 C.ar    
  19 C19            3.9556    -4.6009    -0.4382 C.ar    
  20 C20            5.1018    -3.8364    -0.6478 C.ar    
  21 C21            6.3309    -4.4551    -0.7539 C.ar    
  22 C22            6.4264    -5.8313    -0.6526 C.ar    
  23 C23            5.2919    -6.5951    -0.4451 C.ar    
  24 C24            4.0585    -5.9866    -0.3312 C.ar    
  25 H25           -3.8877    -1.4581    -0.4505 H       
  26 H26            1.5541     2.0870     1.6365 H       
  27 H27            0.7204     2.1370     3.2083 H       
  28 H28            1.6534     0.6949     2.7412 H       
  29 H29           -6.6840    -0.2890     0.5520 H       
  30 H30           -6.5246     1.1771    -0.4447 H       
  31 H31           -6.1084    -0.4130    -1.1278 H       
  32 H32           -1.8803    -2.5306    -0.3413 H       
  33 H33           -0.6308    -4.6865     0.1557 H       
  34 H34            1.5617    -5.7823    -0.0347 H       
  35 H35            3.4177    -1.9593    -0.5865 H       
  36 H36            1.2214    -0.8702    -0.4000 H       
  37 H37            5.0284    -2.7618    -0.7273 H       
  38 H38            7.2198    -3.8636    -0.9167 H       
  39 H39            7.3902    -6.3113    -0.7363 H       
  40 H40            5.3722    -7.6693    -0.3675 H       
  41 H41            3.1734    -6.5839    -0.1688 H       
@<TRIPOS>BOND
   1    1    2 ar
   2    1   10 1
   3    1    6 ar
   4    2    3 ar
   5    3    4 ar
   6    3   12 1
   7    4    5 ar
   8    4    7 1
   9    5    6 ar
  10    5    9 1
  11    7    8 2
  12    7   25 1
  13    8    9 1
  14    8   11 1
  15   10   26 1
  16   10   27 1
  17   10   28 1
  18   11   29 1
  19   11   30 1
  20   11   31 1
  21   12   13 1
  22   12   32 1
  23   13   14 ar
  24   13   18 ar
  25   14   15 ar
  26   14   33 1
  27   15   16 ar
  28   15   34 1
  29   16   17 ar
  30   16   19 1
  31   17   18 ar
  32   17   35 1
  33   18   36 1
  34   19   20 ar
  35   19   24 ar
  36   20   21 ar
  37   20   37 1
  38   21   22 ar
  39   21   38 1
  40   22   23 ar
  41   22   39 1
  42   23   24 ar
  43   23   40 1
  44   24   41 1

#	End of record

