#	Name: ASD07990006
#	Creating user name:	WinNT
#	Creation time:	15. 06. 2019 21:14

#	Modifying user name:	WinNT
#	Modification time:	15. 06. 2019 21:14

#	Program:	/corina/corina34_cracker 3.40 0067  02.08.2006

@<TRIPOS>MOLECULE
ASD07990006
  48   48    0    0    0
SMALL
NO_CHARGES


@<TRIPOS>ATOM
   1 C1            -0.0187     1.5267     0.0104 C.3     
   2 C2             0.0021    -0.0041     0.0020 C.3     
   3 C3            -1.4371    -0.5262    -0.0479 C.3     
   4 C4            -2.1360     0.0525    -1.2819 C.3     
   5 C5            -2.0742     1.5811    -1.2239 C.3     
   6 O6            -0.7097     1.9988    -1.1479 O.3     
   7 C7             1.4166     2.0565    -0.0004 C.3     
   8 O8             1.3999     3.4799     0.1248 O.3     
   9 O9             0.6417    -0.4795     1.1881 O.3     
  10 O10           -1.4255    -1.9528    -0.1301 O.3     
  11 O11           -3.5011    -0.3699    -1.2996 O.3     
  12 O12           -2.6750     2.1273    -2.3998 O.3     
  13 C13           -2.7712     3.5530    -2.3948 C.3     
  14 C14           -3.4261     4.0247    -3.6946 C.3     
  15 C15           -3.5291     5.5512    -3.6891 C.3     
  16 C16           -4.1840     6.0228    -4.9890 C.3     
  17 C17           -4.2870     7.5493    -4.9835 C.3     
  18 C18           -4.9419     8.0209    -6.2834 C.3     
  19 C19           -5.0449     9.5474    -6.2779 C.3     
  20 C20           -5.6998    10.0190    -7.5777 C.3     
  21 H21           -0.5292     1.8784     0.9070 H       
  22 H22            0.5478    -0.3561    -0.8734 H       
  23 H23           -1.9690    -0.2158     0.8515 H       
  24 H24           -1.6335    -0.2984    -2.1832 H       
  25 H25           -2.6118     1.9335    -0.3436 H       
  26 H26            1.9696     1.6248     0.8338 H       
  27 H27            1.8989     1.7799    -0.9379 H       
  28 H28            2.2779     3.8850     0.1253 H       
  29 H29            0.6903    -1.4433     1.2495 H       
  30 H30           -2.3056    -2.3519    -0.1652 H       
  31 H31           -4.0053    -0.0395    -2.0557 H       
  32 H32           -3.3757     3.8734    -1.5462 H       
  33 H33           -1.7734     3.9842    -2.3134 H       
  34 H34           -2.8216     3.7043    -4.5431 H       
  35 H35           -4.4239     3.5935    -3.7759 H       
  36 H36           -4.1336     5.8716    -2.8406 H       
  37 H37           -2.5313     5.9823    -3.6078 H       
  38 H38           -3.5795     5.7024    -5.8375 H       
  39 H39           -5.1818     5.5916    -5.0703 H       
  40 H40           -4.8915     7.8697    -4.1350 H       
  41 H41           -3.2892     7.9805    -4.9022 H       
  42 H42           -4.3374     7.7005    -7.1319 H       
  43 H43           -5.9397     7.5898    -6.3647 H       
  44 H44           -5.6494     9.8678    -5.4294 H       
  45 H45           -4.0471     9.9786    -6.1966 H       
  46 H46           -5.7732    11.1066    -7.5739 H       
  47 H47           -5.0953     9.6987    -8.4263 H       
  48 H48           -6.6976     9.5879    -7.6591 H       
@<TRIPOS>BOND
   1    1    2 1
   2    1    7 1
   3    1    6 1
   4    1   21 1
   5    2    3 1
   6    2    9 1
   7    2   22 1
   8    3    4 1
   9    3   10 1
  10    3   23 1
  11    4    5 1
  12    4   11 1
  13    4   24 1
  14    5    6 1
  15    5   12 1
  16    5   25 1
  17    7    8 1
  18    7   26 1
  19    7   27 1
  20    8   28 1
  21    9   29 1
  22   10   30 1
  23   11   31 1
  24   12   13 1
  25   13   14 1
  26   13   32 1
  27   13   33 1
  28   14   15 1
  29   14   34 1
  30   14   35 1
  31   15   16 1
  32   15   36 1
  33   15   37 1
  34   16   17 1
  35   16   38 1
  36   16   39 1
  37   17   18 1
  38   17   40 1
  39   17   41 1
  40   18   19 1
  41   18   42 1
  42   18   43 1
  43   19   20 1
  44   19   44 1
  45   19   45 1
  46   20   46 1
  47   20   47 1
  48   20   48 1

#	End of record

