#	Name: ASD01813262
#	Creating user name:	WinNT
#	Creation time:	15. 06. 2019 19:30

#	Modifying user name:	WinNT
#	Modification time:	15. 06. 2019 19:30

#	Program:	/corina/corina34_cracker 3.40 0067  02.08.2006

@<TRIPOS>MOLECULE
ASD01813262
  59   63    0    0    0
SMALL
NO_CHARGES


@<TRIPOS>ATOM
   1 C1            -0.0178     1.4608     0.0101 C.3     
   2 N2             0.0021    -0.0041     0.0020 N.pl3   
   3 C3             0.0078    -0.7885    -1.0945 C.2     
   4 C4             0.0273    -2.0862    -0.6736 C.2     
   5 C5             0.0335    -2.0759     0.7348 C.2     
   6 N6             0.0245    -0.8309     1.1317 N.2     
   7 C7             0.0393    -3.2902    -1.5423 C.ar    
   8 C8             0.0364    -3.1521    -2.9285 C.ar    
   9 C9             0.0475    -4.2747    -3.7314 C.ar    
  10 C10            0.0615    -5.5352    -3.1620 C.ar    
  11 C11            0.0736    -6.7572    -4.0438 C.3     
  12 N12            1.4587    -7.1386    -4.3309 N.pl3   
  13 C13            2.1520    -6.7618    -5.4306 C.2     
  14 C14            3.4101    -7.2891    -5.3866 C.2     
  15 C15            4.4707    -7.1162    -6.3886 C.2     
  16 O16            5.5543    -7.6446    -6.2248 O.2     
  17 N17            4.2433    -6.3721    -7.4892 N.am    
  18 C18            5.3008    -6.1997    -8.4882 C.3     
  19 H19            6.2688    -6.1568    -7.9889 H       
  20 C20            5.2807    -7.3803    -9.4612 C.3     
  21 C21            6.3851    -7.2003   -10.5045 C.3     
  22 C22            6.1510    -5.8998   -11.2758 C.3     
  23 C23            6.1712    -4.7192   -10.3028 C.3     
  24 C24            5.0667    -4.8992    -9.2595 C.3     
  25 H25            4.0987    -4.9421    -9.7587 H       
  26 O26            5.0855    -3.7965    -8.3507 O.3     
  27 C27            3.4964    -8.0657    -4.1367 C.ar    
  28 N28            4.4548    -8.7853    -3.5679 N.ar    
  29 C29            4.2645    -9.3936    -2.4158 C.ar    
  30 C30            3.0527    -9.3063    -1.7498 C.ar    
  31 C31            2.0204    -8.5678    -2.3009 C.ar    
  32 C32            2.2431    -7.9273    -3.5164 C.ar    
  33 C33            0.0649    -5.6780    -1.7863 C.ar    
  34 C34            0.0592    -4.5619    -0.9741 C.ar    
  35 H35            1.0048     1.8381     0.0023 H       
  36 H36           -0.5450     1.8219    -0.8730 H       
  37 H37           -0.5280     1.8123     0.9069 H       
  38 H38           -0.0020    -0.4508    -2.1203 H       
  39 H39            0.0479    -2.9455     1.3751 H       
  40 H40            0.0251    -2.1684    -3.3741 H       
  41 H41            0.0450    -4.1688    -4.8062 H       
  42 H42           -0.4310    -7.5780    -3.5341 H       
  43 H43           -0.4435    -6.5367    -4.9776 H       
  44 H44            1.7674    -6.1379    -6.2239 H       
  45 H45            3.3794    -5.9508    -7.6197 H       
  46 H46            5.4475    -8.3068    -8.9117 H       
  47 H47            4.3127    -7.4232    -9.9604 H       
  48 H48            7.3531    -7.1574   -10.0053 H       
  49 H49            6.3708    -8.0414   -11.1977 H       
  50 H50            6.9379    -5.7715   -12.0191 H       
  51 H51            5.1831    -5.9427   -11.7750 H       
  52 H52            7.1392    -4.6763    -9.8035 H       
  53 H53            6.0044    -3.7927   -10.8523 H       
  54 H54            4.9432    -2.9376    -8.7715 H       
  55 H55            5.0674    -9.9714    -1.9823 H       
  56 H56            2.9144    -9.8123    -0.8057 H       
  57 H57            1.0677    -8.4869    -1.7987 H       
  58 H58            0.0762    -6.6644    -1.3467 H       
  59 H59            0.0663    -4.6744     0.1000 H       
@<TRIPOS>BOND
   1    1    2 1
   2    1   35 1
   3    1   36 1
   4    1   37 1
   5    2    6 1
   6    2    3 1
   7    3    4 2
   8    3   38 1
   9    4    5 1
  10    4    7 1
  11    5    6 2
  12    5   39 1
  13    7   34 ar
  14    7    8 ar
  15    8    9 ar
  16    8   40 1
  17    9   10 ar
  18    9   41 1
  19   10   11 1
  20   10   33 ar
  21   11   12 1
  22   11   42 1
  23   11   43 1
  24   12   32 1
  25   12   13 1
  26   13   14 2
  27   13   44 1
  28   14   15 1
  29   14   27 1
  30   15   16 2
  31   15   17 am
  32   17   18 1
  33   17   45 1
  34   18   19 1
  35   18   24 1
  36   18   20 1
  37   20   21 1
  38   20   46 1
  39   20   47 1
  40   21   22 1
  41   21   48 1
  42   21   49 1
  43   22   23 1
  44   22   50 1
  45   22   51 1
  46   23   24 1
  47   23   52 1
  48   23   53 1
  49   24   25 1
  50   24   26 1
  51   26   54 1
  52   27   32 ar
  53   27   28 ar
  54   28   29 ar
  55   29   30 ar
  56   29   55 1
  57   30   31 ar
  58   30   56 1
  59   31   32 ar
  60   31   57 1
  61   33   34 ar
  62   33   58 1
  63   34   59 1

#	End of record

