#	Name: ASD00170041
#	Creating user name:	WinNT
#	Creation time:	15. 06. 2019 18:31

#	Modifying user name:	WinNT
#	Modification time:	15. 06. 2019 18:31

#	Program:	/corina/corina34_cracker 3.40 0067  02.08.2006

@<TRIPOS>MOLECULE
ASD00170041
  38   40    0    0    0
SMALL
NO_CHARGES


@<TRIPOS>ATOM
   1 C1             3.3332     1.4450    -3.6808 C.ar    
   2 C2             3.3715     0.0603    -3.6903 C.ar    
   3 C3             3.5103    -0.6424    -2.5047 C.ar    
   4 C4             3.6107     0.0336    -1.3071 C.ar    
   5 C5             3.5727     1.4292    -1.2911 C.ar    
   6 C6             3.4332     2.1320    -2.4894 C.ar    
   7 Cl7            3.2445    -0.7977    -5.1941 Cl      
   8 C8             6.3101     3.6383    -0.1540 C.3     
   9 C9             4.9682     4.3194    -0.0722 C.2     
  10 C10            3.7612     3.6219    -0.0060 C.2     
  11 C11            3.6794     2.1599    -0.0102 C.2     
  12 O12            3.6993     1.5460     1.0411 O.2     
  13 C13            4.8219     5.6574    -0.0504 C.2     
  14 S14            3.1203     6.0801     0.0499 S.3     
  15 C15            2.6519     4.4400     0.0639 C.2     
  16 N16            1.3508     3.9952     0.1344 N.pl3   
  17 C17            5.8986     6.6001    -0.1012 C.1     
  18 C18            6.7814     7.3730    -0.1428 C.1     
  19 C19            7.8581     8.3157    -0.1935 C.ar    
  20 C20            7.5923     9.6882    -0.1647 C.ar    
  21 C21            8.6345    10.5898    -0.2140 C.ar    
  22 C22            9.9408    10.1393    -0.2923 C.ar    
  23 C23           10.2119     8.7824    -0.3218 C.ar    
  24 C24            9.1809     7.8684    -0.2664 C.ar    
  25 H25            3.2293     1.9876    -4.6088 H       
  26 H26            3.5395    -1.7219    -2.5184 H       
  27 H27            3.7182    -0.5154    -0.3832 H       
  28 H28            3.4035     3.2116    -2.4833 H       
  29 H29            6.5740     3.4799    -1.1996 H       
  30 H30            7.0652     4.2652     0.3204 H       
  31 H31            6.2616     2.6774     0.3582 H       
  32 H32            0.6273     4.6295     0.2572 H       
  33 H33            1.1576     3.0474     0.0613 H       
  34 H34            6.5734    10.0413    -0.1043 H       
  35 H35            8.4309    11.6502    -0.1918 H       
  36 H36           10.7528    10.8503    -0.3310 H       
  37 H37           11.2338     8.4385    -0.3836 H       
  38 H38            9.3943     6.8098    -0.2846 H       
@<TRIPOS>BOND
   1    1    2 ar
   2    1    6 ar
   3    1   25 1
   4    2    3 ar
   5    2    7 1
   6    3    4 ar
   7    3   26 1
   8    4    5 ar
   9    4   27 1
  10    5    6 ar
  11    5   11 1
  12    6   28 1
  13    8    9 1
  14    8   29 1
  15    8   30 1
  16    8   31 1
  17    9   10 1
  18    9   13 2
  19   10   11 1
  20   10   15 2
  21   11   12 2
  22   13   14 1
  23   13   17 1
  24   14   15 1
  25   15   16 1
  26   16   32 1
  27   16   33 1
  28   17   18 3
  29   18   19 1
  30   19   20 ar
  31   19   24 ar
  32   20   21 ar
  33   20   34 1
  34   21   22 ar
  35   21   35 1
  36   22   23 ar
  37   22   36 1
  38   23   24 ar
  39   23   37 1
  40   24   38 1

#	End of record

