#	Name: ASD01150640
#	Creating user name:	WinNT
#	Creation time:	15. 06. 2019 19:04

#	Modifying user name:	WinNT
#	Modification time:	15. 06. 2019 19:04

#	Program:	/corina/corina34_cracker 3.40 0067  02.08.2006

@<TRIPOS>MOLECULE
ASD01150640
  38   40    0    0    0
SMALL
NO_CHARGES


@<TRIPOS>ATOM
   1 C1             1.9051     1.3946     0.9617 C.ar    
   2 C2             1.9197     0.0138     0.9530 C.ar    
   3 C3             0.4838     0.0067    -0.9700 C.ar    
   4 C4             0.4656     1.3874    -0.9645 C.ar    
   5 C5             1.1773     2.0864     0.0020 C.ar    
   6 N6             1.1606     3.4862     0.0092 N.am    
   7 C7            -0.0136     4.1355    -0.0780 C.2     
   8 N8            -0.0664     5.4805    -0.0735 N.am    
   9 C9             1.0704     6.2011     0.0192 C.2     
  10 C10            2.3579     5.4971     0.1149 C.2     
  11 N11            2.3663     4.1900     0.1130 N.2     
  12 O12            1.0309     7.4175     0.0231 O.2     
  13 C13           -1.3594     6.1624    -0.1698 C.3     
  14 O14           -1.0451     3.4968    -0.1629 O.2     
  15 C15           -1.9131     6.3872     1.2136 C.ar    
  16 O16            3.5201     6.1942     0.2095 O.3     
  17 C17            4.7270     5.4344     0.2986 C.3     
  18 C18            1.2098    -0.6812    -0.0120 C.ar    
  19 C19           -1.6117     7.5498     1.8977 C.ar    
  20 C20           -2.1194     7.7574     3.1668 C.ar    
  21 C21           -2.9292     6.8015     3.7525 C.ar    
  22 C22           -3.2312     5.6366     3.0671 C.ar    
  23 C23           -2.7268     5.4329     1.7955 C.ar    
  24 F24            1.2258    -2.0321    -0.0189 F       
  25 Cl25          -4.2476     4.4358     3.8009 Cl      
  26 Cl26          -3.5665     7.0614     5.3463 Cl      
  27 H27            2.4555     1.9361     1.7168 H       
  28 H28            2.4855    -0.5245     1.6989 H       
  29 H29           -0.0697    -0.5373    -1.7212 H       
  30 H30           -0.1004     1.9234    -1.7120 H       
  31 H31           -1.2276     7.1225    -0.6688 H       
  32 H32           -2.0529     5.5472    -0.7432 H       
  33 H33            5.5783     6.1115     0.3689 H       
  34 H34            4.6928     4.8006     1.1848 H       
  35 H35            4.8307     4.8114    -0.5898 H       
  36 H36           -0.9790     8.2963     1.4408 H       
  37 H37           -1.8832     8.6659     3.7009 H       
  38 H38           -2.9619     4.5248     1.2604 H       
@<TRIPOS>BOND
   1    1    2 ar
   2    1    5 ar
   3    1   27 1
   4    2   18 ar
   5    2   28 1
   6    3    4 ar
   7    3   18 ar
   8    3   29 1
   9    4    5 ar
  10    4   30 1
  11    5    6 1
  12    6    7 am
  13    6   11 1
  14    7    8 am
  15    7   14 2
  16    8    9 am
  17    8   13 1
  18    9   10 1
  19    9   12 2
  20   10   11 2
  21   10   16 1
  22   13   15 1
  23   13   31 1
  24   13   32 1
  25   15   19 ar
  26   15   23 ar
  27   16   17 1
  28   17   33 1
  29   17   34 1
  30   17   35 1
  31   18   24 1
  32   19   20 ar
  33   19   36 1
  34   20   21 ar
  35   20   37 1
  36   21   22 ar
  37   21   26 1
  38   22   23 ar
  39   22   25 1
  40   23   38 1

#	End of record

