#	Name: ASD03330641
#	Creating user name:	WinNT
#	Creation time:	15. 06. 2019 20:37

#	Modifying user name:	WinNT
#	Modification time:	15. 06. 2019 20:37

#	Program:	/corina/corina34_cracker 3.40 0067  02.08.2006

@<TRIPOS>MOLECULE
ASD03330641
  54   55    0    0    0
SMALL
NO_CHARGES


@<TRIPOS>ATOM
   1 C1            -0.3228     2.0892    -1.2104 C.2     
   2 N2            -0.5104     0.7977    -1.5901 N.pl3   
   3 C3             1.0140     2.2573    -1.0073 C.2     
   4 N4             1.6238     1.0838    -1.2791 N.2     
   5 C5             0.7174     0.2017    -1.6358 C.2     
   6 C6             0.9815    -1.1952    -2.0207 C.2     
   7 C7             1.6763     3.4990    -0.5697 C.2     
   8 O8             1.0158     4.4975    -0.3554 O.2     
   9 C9             3.6722     4.7623     0.0282 C.3     
  10 N10            3.0139     3.5280    -0.4069 N.am    
  11 C11            3.6317     4.8511     1.5550 C.3     
  12 C12            4.2400     3.5823     2.1560 C.3     
  13 C13            4.4341     6.0694     2.0165 C.3     
  14 C14            2.1806     4.9904     2.0195 C.3     
  15 C15            5.1057     4.7578    -0.4369 C.2     
  16 N16            5.7579     5.9227    -0.6214 N.am    
  17 O17            5.6724     3.7059    -0.6451 O.2     
  18 C18            7.1118     5.9235    -1.1812 C.3     
  19 C19           -1.8059     0.1762    -1.8783 C.3     
  20 C20           -2.6136     1.1004    -2.7948 C.3     
  21 C21           -3.4064     2.0959    -1.9540 C.3     
  22 N22           -2.6727     2.4632    -0.7412 N.3     
  23 C23           -1.4029     3.1298    -1.0661 C.3     
  24 C24           -3.4972     3.3015     0.1394 C.3     
  25 C25            2.2266    -1.6586    -2.0263 C.2     
  26 H26            0.1630    -1.8427    -2.2983 H       
  27 H27            3.1542     5.6206    -0.3996 H       
  28 H28            3.5406     2.7316    -0.5777 H       
  29 H29            5.2738     3.4831     1.8252 H       
  30 H30            4.2111     3.6456     3.2438 H       
  31 H31            3.6684     2.7144     1.8273 H       
  32 H32            3.9789     6.9762     1.6184 H       
  33 H33            4.4360     6.1118     3.1057 H       
  34 H34            5.4589     5.9880     1.6543 H       
  35 H35            1.6090     4.1225     1.6907 H       
  36 H36            2.1517     5.0537     3.1072 H       
  37 H37            1.7472     5.8943     1.5913 H       
  38 H38            5.3309     6.7606    -0.3837 H       
  39 H39            7.4735     6.9490    -1.2558 H       
  40 H40            7.7739     5.3511    -0.5315 H       
  41 H41            7.0953     5.4710    -2.1727 H       
  42 H42           -1.6481    -0.7816    -2.3742 H       
  43 H43           -2.3503     0.0200    -0.9470 H       
  44 H44           -1.9344     1.6420    -3.4531 H       
  45 H45           -3.3011     0.5048    -3.3954 H       
  46 H46           -3.5939     2.9930    -2.5440 H       
  47 H47           -4.3596     1.6478    -1.6734 H       
  48 H48           -1.1388     3.8207    -0.2655 H       
  49 H49           -1.5082     3.6781    -2.0022 H       
  50 H50           -4.3949     2.7538     0.4264 H       
  51 H51           -2.9281     3.5598     1.0324 H       
  52 H52           -3.7804     4.2128    -0.3873 H       
  53 H53            3.0451    -1.0110    -1.7487 H       
  54 H54            2.4202    -2.6829    -2.3086 H       
@<TRIPOS>BOND
   1    1    2 1
   2    1    3 2
   3    1   23 1
   4    2   19 1
   5    2    5 1
   6    3    4 1
   7    3    7 1
   8    4    5 2
   9    5    6 1
  10    6   25 2
  11    6   26 1
  12    7    8 2
  13    7   10 am
  14    9   10 1
  15    9   11 1
  16    9   15 1
  17    9   27 1
  18   10   28 1
  19   11   12 1
  20   11   13 1
  21   11   14 1
  22   12   29 1
  23   12   30 1
  24   12   31 1
  25   13   32 1
  26   13   33 1
  27   13   34 1
  28   14   35 1
  29   14   36 1
  30   14   37 1
  31   15   16 am
  32   15   17 2
  33   16   18 1
  34   16   38 1
  35   18   39 1
  36   18   40 1
  37   18   41 1
  38   19   20 1
  39   19   42 1
  40   19   43 1
  41   20   21 1
  42   20   44 1
  43   20   45 1
  44   21   22 1
  45   21   46 1
  46   21   47 1
  47   22   23 1
  48   22   24 1
  49   23   48 1
  50   23   49 1
  51   24   50 1
  52   24   51 1
  53   24   52 1
  54   25   53 1
  55   25   54 1

#	End of record

