#	Name: ASD02030218
#	Creating user name:	WinNT
#	Creation time:	15. 06. 2019 20:14

#	Modifying user name:	WinNT
#	Modification time:	15. 06. 2019 20:14

#	Program:	/corina/corina34_cracker 3.40 0067  02.08.2006

@<TRIPOS>MOLECULE
ASD02030218
  55   59    0    0    0
SMALL
NO_CHARGES


@<TRIPOS>ATOM
   1 N1            -0.0945     1.8725     0.0678 N.am    
   2 C2             0.2380     0.4618    -0.1756 C.3     
   3 C3            -0.5217    -0.4027     0.8381 C.3     
   4 N4            -1.9344     0.0026     0.8355 N.am    
   5 C5            -2.2669     1.4133     1.0789 C.3     
   6 C6            -1.5075     2.2768     0.0707 C.3     
   7 C7             0.8786     2.7782     0.2898 C.2     
   8 C8             2.2860     2.3393     0.3987 C.2     
   9 N9             3.3090     3.0964     0.7321 N.2     
  10 N10            2.7457     1.0936     0.1801 N.2     
  11 C11            4.0391     1.1158     0.3788 C.2     
  12 N12            4.3769     2.3753     0.7236 N.pl3   
  13 C13            5.6706     2.8239     1.0220 C.ar    
  14 O14            0.5989     3.9560     0.4005 O.2     
  15 C15           -2.9075    -0.9031     0.6135 C.2     
  16 C16           -2.5573    -2.2844     0.2493 C.2     
  17 O17           -4.0754    -0.5781     0.7143 O.2     
  18 C18            5.8844     4.1521     1.3642 C.ar    
  19 C19            7.1619     4.5915     1.6581 C.ar    
  20 C20            8.2262     3.7084     1.6107 C.ar    
  21 C21            8.0153     2.3850     1.2695 C.ar    
  22 C22            6.7403     1.9392     0.9815 C.ar    
  23 C23           -3.7726     1.6231     0.9062 C.3     
  24 Cl24           7.4310     6.2522     2.0862 Cl      
  25 C25           -2.3759    -2.7828    -1.0036 C.2     
  26 O26           -2.0665    -4.0828    -0.9352 O.3     
  27 C27           -2.0262    -4.5114     0.3434 C.ar    
  28 C28           -2.3233    -3.4166     1.1678 C.ar    
  29 C29           -1.7578    -5.7453     0.9235 C.ar    
  30 C30           -1.7918    -5.8837     2.2945 C.ar    
  31 C31           -2.0922    -4.8009     3.1073 C.ar    
  32 C32           -2.3538    -3.5674     2.5504 C.ar    
  33 C33           -2.5047    -1.9892    -2.2783 C.3     
  34 H34           -0.0587     0.1853    -1.1873 H       
  35 H35            1.3107     0.3123    -0.0526 H       
  36 H36           -0.4419    -1.4526     0.5561 H       
  37 H37           -0.1007    -0.2555     1.8327 H       
  38 H38           -1.9702     1.6898     2.0906 H       
  39 H39           -1.5882     3.3262     0.3539 H       
  40 H40           -1.9264     2.1307    -0.9249 H       
  41 H41            4.7131     0.2770     0.2867 H       
  42 H42            5.0538     4.8415     1.4005 H       
  43 H43            9.2235     4.0535     1.8402 H       
  44 H44            8.8480     1.6983     1.2327 H       
  45 H45            6.5767     0.9053     0.7156 H       
  46 H46           -4.3063     1.0908     1.6936 H       
  47 H47           -4.0006     2.6872     0.9680 H       
  48 H48           -4.0836     1.2407    -0.0660 H       
  49 H49           -1.5230    -6.5956     0.3003 H       
  50 H50           -1.5828    -6.8451     2.7402 H       
  51 H51           -2.1158    -4.9232     4.1801 H       
  52 H52           -2.5877    -2.7243     3.1836 H       
  53 H53           -1.5378    -1.5574    -2.5367 H       
  54 H54           -2.8363    -2.6455    -3.0829 H       
  55 H55           -3.2331    -1.1907    -2.1371 H       
@<TRIPOS>BOND
   1    1    2 1
   2    1    7 am
   3    1    6 1
   4    2    3 1
   5    2   34 1
   6    2   35 1
   7    3    4 1
   8    3   36 1
   9    3   37 1
  10    4    5 1
  11    4   15 am
  12    5    6 1
  13    5   23 1
  14    5   38 1
  15    6   39 1
  16    6   40 1
  17    7    8 1
  18    7   14 2
  19    8    9 2
  20    8   10 1
  21    9   12 1
  22   10   11 2
  23   11   12 1
  24   11   41 1
  25   12   13 1
  26   13   18 ar
  27   13   22 ar
  28   15   16 1
  29   15   17 2
  30   16   25 2
  31   16   28 1
  32   18   19 ar
  33   18   42 1
  34   19   20 ar
  35   19   24 1
  36   20   21 ar
  37   20   43 1
  38   21   22 ar
  39   21   44 1
  40   22   45 1
  41   23   46 1
  42   23   47 1
  43   23   48 1
  44   25   26 1
  45   25   33 1
  46   26   27 1
  47   27   28 ar
  48   27   29 ar
  49   28   32 ar
  50   29   30 ar
  51   29   49 1
  52   30   31 ar
  53   30   50 1
  54   31   32 ar
  55   31   51 1
  56   32   52 1
  57   33   53 1
  58   33   54 1
  59   33   55 1

#	End of record

