#	Name: ASD01478075
#	Creating user name:	WinNT
#	Creation time:	15. 06. 2019 19:21

#	Modifying user name:	WinNT
#	Modification time:	15. 06. 2019 19:21

#	Program:	/corina/corina34_cracker 3.40 0067  02.08.2006

@<TRIPOS>MOLECULE
ASD01478075
  36   37    0    0    0
SMALL
NO_CHARGES


@<TRIPOS>ATOM
   1 C1            -0.0482     1.2378    -0.1281 C.3     
   2 C2             0.1608    -0.2159    -0.5619 C.3     
   3 O3             0.4741    -1.0186     0.5717 O.3     
   4 C4            -0.3451    -0.7685     1.7163 C.3     
   5 O5             0.4480    -0.1738     2.7482 O.3     
   6 C6             0.7755     1.1928     2.4928 C.3     
   7 C7             1.8790     1.2720     1.4428 C.3     
   8 C8             1.3217     1.8758     0.1477 C.3     
   9 O9            -0.7212     1.9693    -1.1866 O.3     
  10 C10           -2.0663     1.9834    -1.1596 C.2     
  11 O11           -2.6620     1.4007    -0.2763 O.2     
  12 O12           -2.7515     2.6431    -2.1116 O.3     
  13 C13           -4.1015     2.7099    -1.9661 C.ar    
  14 C14           -4.6586     3.5868    -1.0469 C.ar    
  15 C15           -6.0308     3.6531    -0.9012 C.ar    
  16 C16           -6.8486     2.8460    -1.6703 C.ar    
  17 C17           -6.2957     1.9712    -2.5871 C.ar    
  18 C18           -4.9243     1.9053    -2.7406 C.ar    
  19 N19           -8.3185     2.9184    -1.5115 N.pl3   
  20 O20           -8.8066     3.6884    -0.7039 O.2     
  21 O21           -9.0399     2.2079    -2.1885 O.2     
  22 H22           -0.6529     1.2650     0.7784 H       
  23 H23           -0.7505    -0.5890    -1.0292 H       
  24 H24            0.9805    -0.2657    -1.2786 H       
  25 H25           -1.1539    -0.0907     1.4433 H       
  26 H26           -0.7640    -1.7083     2.0759 H       
  27 H27           -0.1091     1.7155     2.1290 H       
  28 H28            1.1186     1.6617     3.4151 H       
  29 H29            2.6893     1.8987     1.8153 H       
  30 H30            2.2598     0.2708     1.2412 H       
  31 H31            1.9997     1.6628    -0.6788 H       
  32 H32            1.2089     2.9537     0.2632 H       
  33 H33           -4.0202     4.2169    -0.4454 H       
  34 H34           -6.4650     4.3357    -0.1857 H       
  35 H35           -6.9366     1.3415    -3.1865 H       
  36 H36           -4.4931     1.2247    -3.4598 H       
@<TRIPOS>BOND
   1    1    2 1
   2    1    8 1
   3    1    9 1
   4    1   22 1
   5    2    3 1
   6    2   23 1
   7    2   24 1
   8    3    4 1
   9    4    5 1
  10    4   25 1
  11    4   26 1
  12    5    6 1
  13    6    7 1
  14    6   27 1
  15    6   28 1
  16    7    8 1
  17    7   29 1
  18    7   30 1
  19    8   31 1
  20    8   32 1
  21    9   10 1
  22   10   11 2
  23   10   12 1
  24   12   13 1
  25   13   14 ar
  26   13   18 ar
  27   14   15 ar
  28   14   33 1
  29   15   16 ar
  30   15   34 1
  31   16   17 ar
  32   16   19 1
  33   17   18 ar
  34   17   35 1
  35   18   36 1
  36   19   20 2
  37   19   21 2

#	End of record

