#	Name: ASD01720145
#	Creating user name:	WinNT
#	Creation time:	15. 06. 2019 19:23

#	Modifying user name:	WinNT
#	Modification time:	15. 06. 2019 19:23

#	Program:	/corina/corina34_cracker 3.40 0067  02.08.2006

@<TRIPOS>MOLECULE
ASD01720145
 108  112    0    0    0
SMALL
NO_CHARGES


@<TRIPOS>ATOM
   1 C1            -0.1290     0.6881     8.5395 C.ar    
   2 C2            -1.1583     0.0427     7.8859 C.ar    
   3 C3            -1.2626     0.1368     6.5104 C.ar    
   4 C4            -0.3413     0.8792     5.8019 C.ar    
   5 C5             0.6934     1.5349     6.4582 C.ar    
   6 C6             0.8022     1.4312     7.8266 C.ar    
   7 C7             1.9176     2.0894     8.5993 C.3     
   8 C8             1.6455     2.3492     5.6225 C.3     
   9 C9             2.9573     2.5872     6.3687 C.3     
  10 N10            2.6276     3.0358     7.7323 N.am    
  11 C11            3.7595     3.6500     5.6630 C.2     
  12 N12            5.0704     3.4539     5.4189 N.am    
  13 O13            3.2255     4.6817     5.3148 O.2     
  14 C14            5.8502     4.4871     4.7329 C.3     
  15 C15            7.2985     4.0171     4.5823 C.3     
  16 C16            8.1129     5.0962     3.8659 C.3     
  17 C17            9.5612     4.6262     3.7153 C.3     
  18 C18           10.3756     5.7052     2.9989 C.3     
  19 C19           11.8257     5.2967     2.9594 C.2     
  20 N20            9.8763     5.8664     1.6311 N.am    
  21 N21           12.6059     5.4754     4.0438 N.am    
  22 O22           12.2906     4.8073     1.9518 O.2     
  23 C23           14.0155     5.0783     4.0054 C.3     
  24 C24           14.6691     5.3866     5.3540 C.3     
  25 C25           16.0838     4.8672     5.3570 C.ar    
  26 C26           14.6806     6.8769     5.5776 C.ar    
  27 C27           15.4014     7.6974     4.7302 C.ar    
  28 C28           15.4120     9.0644     4.9354 C.ar    
  29 C29           14.7015     9.6109     5.9877 C.ar    
  30 C30           13.9800     8.7905     6.8346 C.ar    
  31 C31           13.9659     7.4239     6.6268 C.ar    
  32 C32           18.1747     4.5394     4.2375 C.ar    
  33 C33           16.8770     5.0158     4.2347 C.ar    
  34 C34           16.5900     4.2473     6.4841 C.ar    
  35 C35           17.8876     3.7708     6.4868 C.ar    
  36 C36           18.6789     3.9139     5.3624 C.ar    
  37 C37            9.8975     4.8227     0.7786 C.2     
  38 O38           10.3307     3.7480     1.1445 O.2     
  39 O39            9.4386     4.9708    -0.4785 O.3     
  40 C40            9.4919     3.8043    -1.3414 C.3     
  41 C41            8.6568     2.6781    -0.7289 C.3     
  42 C42            8.9318     4.1631    -2.7192 C.3     
  43 C43           10.9434     3.3424    -1.4854 C.3     
  44 C44            2.9655     4.2661     8.1667 C.2     
  45 O45            3.6445     4.9900     7.4697 O.2     
  46 C46            2.4996     4.7422     9.5185 C.3     
  47 C47            3.0170     6.1607     9.7657 C.3     
  48 C48            2.5440     6.6440    11.1381 C.3     
  49 C49            3.0536     8.0412    11.3817 C.ar    
  50 C50            4.7484     9.5150    12.2113 C.ar    
  51 C51            4.2810     8.2334    11.9879 C.ar    
  52 C52            2.2961     9.1306    10.9938 C.ar    
  53 C53            2.7636    10.4122    11.2172 C.ar    
  54 C54            3.9882    10.6044    11.8290 C.ar    
  55 H55           -0.0495     0.6183     9.6143 H       
  56 H56           -1.8794    -0.5340     8.4463 H       
  57 H57           -2.0633    -0.3700     5.9923 H       
  58 H58           -0.4245     0.9513     4.7275 H       
  59 H59            1.5013     2.6226     9.4540 H       
  60 H60            2.6134     1.3278     8.9515 H       
  61 H61            1.8527     1.8170     4.6940 H       
  62 H62            1.1863     3.3098     5.3893 H       
  63 H63            3.5297     1.6607     6.4127 H       
  64 H64            5.4975     2.6288     5.6974 H       
  65 H65            5.4232     4.6699     3.7468 H       
  66 H66            5.8258     5.4078     5.3158 H       
  67 H67            7.7255     3.8343     5.5684 H       
  68 H68            7.3229     3.0964     3.9994 H       
  69 H69            7.6859     5.2790     2.8798 H       
  70 H70            8.0885     6.0169     4.4488 H       
  71 H71            9.9882     4.4434     4.7014 H       
  72 H72            9.5856     3.7055     3.1324 H       
  73 H73           10.2786     6.6494     3.5347 H       
  74 H74            9.5304     6.7242     1.3389 H       
  75 H75           12.2340     5.8669     4.8496 H       
  76 H76           14.0866     4.0096     3.8031 H       
  77 H77           14.5276     5.6320     3.2184 H       
  78 H78           14.1031     4.9040     6.1508 H       
  79 H79           15.9565     7.2704     3.9080 H       
  80 H80           15.9757     9.7054     4.2737 H       
  81 H81           14.7104    10.6789     6.1484 H       
  82 H82           13.4252     9.2174     7.6570 H       
  83 H83           13.3992     6.7833     7.2863 H       
  84 H84           18.7942     4.6549     3.3604 H       
  85 H85           16.4828     5.5038     3.3556 H       
  86 H86           15.9718     4.1355     7.3626 H       
  87 H87           18.2834     3.2871     7.3676 H       
  88 H88           19.6927     3.5417     5.3646 H       
  89 H89            7.6227     3.0071    -0.6263 H       
  90 H90            8.6969     1.8024    -1.3767 H       
  91 H91            9.0558     2.4224     0.2527 H       
  92 H92            9.5268     4.9654    -3.1556 H       
  93 H93            8.9719     3.2874    -3.3671 H       
  94 H94            7.8978     4.4921    -2.6167 H       
  95 H95           11.3425     3.0868    -0.5038 H       
  96 H96           10.9835     2.4667    -2.1332 H       
  97 H97           11.5384     4.1447    -1.9218 H       
  98 H98            1.4100     4.7426     9.5479 H       
  99 H99            2.8837     4.0756    10.2907 H       
 100 H100           4.1066     6.1603     9.7363 H       
 101 H101           2.6329     6.8272     8.9935 H       
 102 H102           1.4544     6.6444    11.1675 H       
 103 H103           2.9280     5.9775    11.9103 H       
 104 H104           5.7072     9.6651    12.6852 H       
 105 H105           4.8745     7.3822    12.2872 H       
 106 H106           1.3394     8.9804    10.5159 H       
 107 H107           2.1721    11.2633    10.9135 H       
 108 H108           4.3534    11.6057    12.0035 H       
@<TRIPOS>BOND
   1    1    2 ar
   2    1    6 ar
   3    1   55 1
   4    2    3 ar
   5    2   56 1
   6    3    4 ar
   7    3   57 1
   8    4    5 ar
   9    4   58 1
  10    5    6 ar
  11    5    8 1
  12    6    7 1
  13    7   10 1
  14    7   59 1
  15    7   60 1
  16    8    9 1
  17    8   61 1
  18    8   62 1
  19    9   10 1
  20    9   11 1
  21    9   63 1
  22   10   44 am
  23   11   12 am
  24   11   13 2
  25   12   14 1
  26   12   64 1
  27   14   15 1
  28   14   65 1
  29   14   66 1
  30   15   16 1
  31   15   67 1
  32   15   68 1
  33   16   17 1
  34   16   69 1
  35   16   70 1
  36   17   18 1
  37   17   71 1
  38   17   72 1
  39   18   19 1
  40   18   20 1
  41   18   73 1
  42   19   21 am
  43   19   22 2
  44   20   37 am
  45   20   74 1
  46   21   23 1
  47   21   75 1
  48   23   24 1
  49   23   76 1
  50   23   77 1
  51   24   25 1
  52   24   26 1
  53   24   78 1
  54   25   34 ar
  55   25   33 ar
  56   26   27 ar
  57   26   31 ar
  58   27   28 ar
  59   27   79 1
  60   28   29 ar
  61   28   80 1
  62   29   30 ar
  63   29   81 1
  64   30   31 ar
  65   30   82 1
  66   31   83 1
  67   32   33 ar
  68   32   36 ar
  69   32   84 1
  70   33   85 1
  71   34   35 ar
  72   34   86 1
  73   35   36 ar
  74   35   87 1
  75   36   88 1
  76   37   38 2
  77   37   39 1
  78   39   40 1
  79   40   41 1
  80   40   42 1
  81   40   43 1
  82   41   89 1
  83   41   90 1
  84   41   91 1
  85   42   92 1
  86   42   93 1
  87   42   94 1
  88   43   95 1
  89   43   96 1
  90   43   97 1
  91   44   45 2
  92   44   46 1
  93   46   47 1
  94   46   98 1
  95   46   99 1
  96   47   48 1
  97   47  100 1
  98   47  101 1
  99   48   49 1
 100   48  102 1
 101   48  103 1
 102   49   52 ar
 103   49   51 ar
 104   50   51 ar
 105   50   54 ar
 106   50  104 1
 107   51  105 1
 108   52   53 ar
 109   52  106 1
 110   53   54 ar
 111   53  107 1
 112   54  108 1

#	End of record

