#	Name: ASD05313163
#	Creating user name:	WinNT
#	Creation time:	15. 06. 2019 20:58

#	Modifying user name:	WinNT
#	Modification time:	15. 06. 2019 20:58

#	Program:	/corina/corina34_cracker 3.40 0067  02.08.2006

@<TRIPOS>MOLECULE
ASD05313163
  35   38    0    0    0
SMALL
NO_CHARGES


@<TRIPOS>ATOM
   1 C1            -0.0732     0.8199     1.0182 C.2     
   2 C2             0.1128    -0.6169     0.5926 C.3     
   3 N3             0.9365     1.7364     1.0442 N.pl3   
   4 N4             1.4567    -0.7165    -0.0078 N.am    
   5 C5             2.5714    -0.0369     0.6693 C.3     
   6 C6             2.3225     1.4762     0.6598 C.3     
   7 N7            -0.9008     2.6465     1.6987 N.2     
   8 N8            -1.1556     1.4145     1.4188 N.2     
   9 C9             0.3771     2.8973     1.4868 C.2     
  10 S10            2.8125     4.4784     1.7784 S.3     
  11 N11            2.6743     6.1523     2.0204 N.2     
  12 C12            1.4072     6.4446     2.0323 C.2     
  13 C13            0.4995     5.4294     1.8613 C.2     
  14 C14            1.0668     4.1834     1.6926 C.2     
  15 C15            1.6573    -1.4114    -1.1450 C.2     
  16 O16            2.7495    -1.4011    -1.6789 O.2     
  17 C17            0.5503    -2.1854    -1.7427 C.ar    
  18 C18            0.3187    -2.1301    -3.1199 C.ar    
  19 C19           -0.7177    -2.8561    -3.6717 C.ar    
  20 C20           -1.5262    -3.6373    -2.8634 C.ar    
  21 C21           -1.3010    -3.6957    -1.4978 C.ar    
  22 C22           -0.2656    -2.9800    -0.9350 C.ar    
  23 Cl23          -2.8280    -4.5470    -3.5644 Cl      
  24 Cl24           1.3315    -1.1504    -4.1340 Cl      
  25 H25            0.0429    -1.2738     1.4596 H       
  26 H26           -0.6445    -0.8881    -0.1431 H       
  27 H27            2.6402    -0.3881     1.6989 H       
  28 H28            3.5025    -0.2558     0.1465 H       
  29 H29            2.5028     1.8690    -0.3409 H       
  30 H30            2.9942     1.9602     1.3687 H       
  31 H31            1.0767     7.4629     2.1738 H       
  32 H32           -0.5681     5.5923     1.8591 H       
  33 H33           -0.8986    -2.8144    -4.7356 H       
  34 H34           -1.9353    -4.3070    -0.8730 H       
  35 H35           -0.0887    -3.0306     0.1292 H       
@<TRIPOS>BOND
   1    1    2 1
   2    1    3 1
   3    1    8 2
   4    2    4 1
   5    2   25 1
   6    2   26 1
   7    3    6 1
   8    3    9 1
   9    4    5 1
  10    4   15 am
  11    5    6 1
  12    5   27 1
  13    5   28 1
  14    6   29 1
  15    6   30 1
  16    7    8 1
  17    7    9 2
  18    9   14 1
  19   10   11 1
  20   10   14 1
  21   11   12 2
  22   12   13 1
  23   12   31 1
  24   13   14 2
  25   13   32 1
  26   15   16 2
  27   15   17 1
  28   17   18 ar
  29   17   22 ar
  30   18   19 ar
  31   18   24 1
  32   19   20 ar
  33   19   33 1
  34   20   21 ar
  35   20   23 1
  36   21   22 ar
  37   21   34 1
  38   22   35 1

#	End of record

