#	Name: ASD01910780
#	Creating user name:	WinNT
#	Creation time:	15. 06. 2019 19:56

#	Modifying user name:	WinNT
#	Modification time:	15. 06. 2019 19:56

#	Program:	/corina/corina34_cracker 3.40 0067  02.08.2006

@<TRIPOS>MOLECULE
ASD01910780
  48   51    0    0    0
SMALL
NO_CHARGES


@<TRIPOS>ATOM
   1 C1             0.1983     1.5098    -0.2531 C.2     
   2 N2             0.1395     0.1114    -0.1984 N.3     
   3 C3             1.4869    -0.4700    -0.1325 C.3     
   4 C4             1.3770    -1.9794     0.1080 C.3     
   5 N5             0.5013    -2.5545    -0.9243 N.am    
   6 C6            -0.8150    -1.9362    -1.1435 C.3     
   7 C7            -0.6189    -0.4285    -1.3347 C.3     
   8 C8             0.8949    -3.6195    -1.6505 C.2     
   9 C9            -0.0462    -4.2591    -2.5948 C.ar    
  10 O10            2.0235    -4.0543    -1.5291 O.2     
  11 C11            0.4074    -4.7123    -3.8356 C.ar    
  12 C12           -0.4698    -5.3096    -4.7197 C.ar    
  13 C13           -1.7998    -5.4632    -4.3848 C.ar    
  14 C14           -2.2682    -5.0142    -3.1459 C.ar    
  15 C15           -1.3859    -4.4158    -2.2463 C.ar    
  16 C16           -3.6485    -5.1732    -2.7996 C.1     
  17 C17           -4.7802    -5.3035    -2.5157 C.1     
  18 C18           -6.1606    -5.4625    -2.1694 C.ar    
  19 N19           -6.5989    -5.0332    -0.9898 N.ar    
  20 C20           -7.8608    -5.1612    -0.6347 C.ar    
  21 C21           -8.7813    -5.7507    -1.4818 C.ar    
  22 C22           -8.3673    -6.2135    -2.7238 C.ar    
  23 C23           -7.0386    -6.0625    -3.0760 C.ar    
  24 N24            1.3337     2.1601    -0.2443 N.2     
  25 S25            0.9415     3.8086    -0.3238 S.3     
  26 N26           -0.7393     3.5840    -0.3671 N.2     
  27 C27           -0.9407     2.2931    -0.3261 C.2     
  28 O28           -2.1896     1.7544    -0.3451 O.3     
  29 C29           -3.2882     2.6657    -0.4119 C.3     
  30 H30            2.0078    -0.2884    -1.0726 H       
  31 H31            2.0416    -0.0108     0.6858 H       
  32 H32            2.3659    -2.4334     0.0437 H       
  33 H33            0.9502    -2.1630     1.0940 H       
  34 H34           -1.2754    -2.3615    -2.0353 H       
  35 H35           -1.4526    -2.1156    -0.2778 H       
  36 H36           -1.5914     0.0609    -1.3884 H       
  37 H37           -0.0687    -0.2475    -2.2581 H       
  38 H38            1.4467    -4.5951    -4.1046 H       
  39 H39           -0.1132    -5.6577    -5.6778 H       
  40 H40           -2.4803    -5.9308    -5.0810 H       
  41 H41           -1.7417    -4.0671    -1.2881 H       
  42 H42           -8.1810    -4.8011     0.3318 H       
  43 H43           -9.8134    -5.8506    -1.1797 H       
  44 H44           -9.0686    -6.6776    -3.4016 H       
  45 H45           -6.6829    -6.4108    -4.0344 H       
  46 H46           -3.2668     3.3250     0.4559 H       
  47 H47           -3.2120     3.2606    -1.3221 H       
  48 H48           -4.2239     2.1068    -0.4205 H       
@<TRIPOS>BOND
   1    1    2 1
   2    1   24 2
   3    1   27 1
   4    2    3 1
   5    2    7 1
   6    3    4 1
   7    3   30 1
   8    3   31 1
   9    4    5 1
  10    4   32 1
  11    4   33 1
  12    5    6 1
  13    5    8 am
  14    6    7 1
  15    6   34 1
  16    6   35 1
  17    7   36 1
  18    7   37 1
  19    8    9 1
  20    8   10 2
  21    9   11 ar
  22    9   15 ar
  23   11   12 ar
  24   11   38 1
  25   12   13 ar
  26   12   39 1
  27   13   14 ar
  28   13   40 1
  29   14   15 ar
  30   14   16 1
  31   15   41 1
  32   16   17 3
  33   17   18 1
  34   18   19 ar
  35   18   23 ar
  36   19   20 ar
  37   20   21 ar
  38   20   42 1
  39   21   22 ar
  40   21   43 1
  41   22   23 ar
  42   22   44 1
  43   23   45 1
  44   24   25 1
  45   25   26 1
  46   26   27 2
  47   27   28 1
  48   28   29 1
  49   29   46 1
  50   29   47 1
  51   29   48 1

#	End of record

