#	Name: ASD01811821
#	Creating user name:	WinNT
#	Creation time:	15. 06. 2019 19:27

#	Modifying user name:	WinNT
#	Modification time:	15. 06. 2019 19:27

#	Program:	/corina/corina34_cracker 3.40 0067  02.08.2006

@<TRIPOS>MOLECULE
ASD01811821
  56   59    0    0    0
SMALL
NO_CHARGES


@<TRIPOS>ATOM
   1 C1            -0.0167     1.3805     0.0096 C.ar    
   2 C2             0.0021    -0.0041     0.0020 C.ar    
   3 C3            -1.1845    -0.7161     0.0090 C.ar    
   4 C4            -2.3942    -0.0535     0.0241 C.ar    
   5 C5            -2.4213     1.3425     0.0323 C.ar    
   6 C6            -1.2177     2.0512     0.0304 C.ar    
   7 C7             1.2777     2.1522     0.0014 C.3     
   8 C8             1.3184    -0.7376    -0.0144 C.3     
   9 C9            -1.1549    -2.2228    -0.0004 C.3     
  10 C10           -1.0078    -2.7311     1.4107 C.ar    
  11 C11           -2.1289    -2.9920     2.1833 C.ar    
  12 C12           -1.9454    -3.4589     3.4760 C.ar    
  13 C13           -0.6604    -3.6474     3.9479 C.ar    
  14 N14            0.3833    -3.3883     3.1846 N.ar    
  15 C15            0.2466    -2.9486     1.9490 C.ar    
  16 C16           -0.4493    -4.1545     5.3513 C.3     
  17 C17            0.4249    -5.4096     5.3139 C.3     
  18 C18           -3.5309     2.3149     0.0477 C.2     
  19 N19           -3.0504     3.5703     0.0501 N.am    
  20 C20           -1.5841     3.5142     0.0402 C.3     
  21 O21           -4.7107     2.0226     0.0563 O.2     
  22 C22           -3.8575     4.7928     0.0640 C.3     
  23 C23           -4.7300     4.8158     1.3228 C.3     
  24 C24           -5.6250     6.0585     1.2877 C.3     
  25 C25           -6.4581     6.0417     0.0035 C.3     
  26 O26           -5.5864     5.9891    -1.1276 O.3     
  27 C27           -4.7589     4.8249    -1.1729 C.3     
  28 O28           -3.8957     4.8602     2.4821 O.3     
  29 H29           -3.3180    -0.6130     0.0291 H       
  30 H30            1.5800     2.3437    -1.0282 H       
  31 H31            1.1390     3.0999     0.5217 H       
  32 H32            2.0504     1.5710     0.5048 H       
  33 H33            1.6456    -0.9199     1.0092 H       
  34 H34            1.1977    -1.6891    -0.5323 H       
  35 H35            2.0641    -0.1342    -0.5322 H       
  36 H36           -2.0831    -2.6018    -0.4281 H       
  37 H37           -0.3118    -2.5659    -0.5999 H       
  38 H38           -3.1215    -2.8349     1.7878 H       
  39 H39           -2.7962    -3.6723     4.1062 H       
  40 H40            1.1251    -2.7473     1.3538 H       
  41 H41            0.0446    -3.3853     5.9450 H       
  42 H42           -1.4131    -4.3962     5.7991 H       
  43 H43           -0.0690    -6.1788     4.7201 H       
  44 H44            1.3888    -5.1679     4.8660 H       
  45 H45            0.5776    -5.7764     6.3289 H       
  46 H46           -1.1849     3.9949     0.9333 H       
  47 H47           -1.1966     4.0028    -0.8538 H       
  48 H48           -3.2017     5.6635     0.0595 H       
  49 H49           -5.3507     3.9203     1.3527 H       
  50 H50           -6.2885     6.0540     2.1525 H       
  51 H51           -5.0048     6.9547     1.3079 H       
  52 H52           -7.1075     5.1663     0.0029 H       
  53 H53           -7.0657     6.9452    -0.0475 H       
  54 H54           -4.1424     4.8519    -2.0714 H       
  55 H55           -5.3861     3.9336    -1.1889 H       
  56 H56           -4.3831     4.8767     3.3171 H       
@<TRIPOS>BOND
   1    1    2 ar
   2    1    7 1
   3    1    6 ar
   4    2    3 ar
   5    2    8 1
   6    3    4 ar
   7    3    9 1
   8    4    5 ar
   9    4   29 1
  10    5    6 ar
  11    5   18 1
  12    6   20 1
  13    7   30 1
  14    7   31 1
  15    7   32 1
  16    8   33 1
  17    8   34 1
  18    8   35 1
  19    9   10 1
  20    9   36 1
  21    9   37 1
  22   10   11 ar
  23   10   15 ar
  24   11   12 ar
  25   11   38 1
  26   12   13 ar
  27   12   39 1
  28   13   14 ar
  29   13   16 1
  30   14   15 ar
  31   15   40 1
  32   16   17 1
  33   16   41 1
  34   16   42 1
  35   17   43 1
  36   17   44 1
  37   17   45 1
  38   18   19 am
  39   18   21 2
  40   19   20 1
  41   19   22 1
  42   20   46 1
  43   20   47 1
  44   22   23 1
  45   22   27 1
  46   22   48 1
  47   23   24 1
  48   23   28 1
  49   23   49 1
  50   24   25 1
  51   24   50 1
  52   24   51 1
  53   25   26 1
  54   25   52 1
  55   25   53 1
  56   26   27 1
  57   27   54 1
  58   27   55 1
  59   28   56 1

#	End of record

