#	Name: ASD05430244
#	Creating user name:	WinNT
#	Creation time:	15. 06. 2019 21:00

#	Modifying user name:	WinNT
#	Modification time:	15. 06. 2019 21:00

#	Program:	/corina/corina34_cracker 3.40 0067  02.08.2006

@<TRIPOS>MOLECULE
ASD05430244
  74   81    0    0    0
SMALL
NO_CHARGES


@<TRIPOS>ATOM
   1 C1            -0.0168     1.3884     0.0097 C.ar    
   2 C2             0.0021    -0.0041     0.0020 C.ar    
   3 C3             1.2145    -0.6775    -0.0132 C.ar    
   4 C4             2.3994     0.0335    -0.0207 C.ar    
   5 C5             2.3802     1.4162    -0.0126 C.ar    
   6 C6             1.1759     2.0942     0.0021 C.ar    
   7 C7             4.3011     0.9545     2.2329 C.3     
   8 C8             4.6485     1.9673     1.1369 C.3     
   9 C9             3.6741     2.1848    -0.0198 C.3     
  10 C10            5.6048     0.6042     2.9584 C.3     
  11 C11            6.2080     1.8476     3.6309 C.3     
  12 N12            6.4539     2.8593     2.6060 N.pl3   
  13 C13            5.4443     3.1135     1.6934 C.2     
  14 N14            5.2072     4.3438     1.3782 N.2     
  15 N15           -1.2028    -0.7242     0.0101 N.pl3   
  16 C16           -1.5470    -1.7458    -0.8364 C.2     
  17 C17           -2.7816    -2.1488    -0.4797 C.2     
  18 N18           -3.1844    -1.3972     0.5555 N.2     
  19 C19           -2.2450    -0.5442     0.8618 C.2     
  20 C20           -3.5734    -3.2532    -1.1310 C.3     
  21 C21            7.6983     3.6234     2.5077 C.3     
  22 C22            7.3645     5.0865     2.1474 C.3     
  23 O23            5.9762     5.3616     1.9971 O.3     
  24 C24           -1.1448     3.4816     0.0264 C.3     
  25 O25           -1.2023     2.0537     0.0189 O.3     
  26 C26            4.9691     1.4057    -0.2491 C.3     
  27 C27            5.3141    -0.4493     4.0221 C.3     
  28 C28            6.3050    -1.5509     3.6654 C.3     
  29 C29            6.3114    -1.3912     2.1438 C.3     
  30 O30            6.5395     0.0255     2.0424 O.3     
  31 C31            8.4190     3.6272     3.8490 C.3     
  32 C32            9.3559     2.4267     3.9132 C.3     
  33 N33           10.3747     2.6205     2.8669 N.3     
  34 C34            9.8240     2.6150     1.5782 C.ar    
  35 C35            8.5346     3.0819     1.3796 C.ar    
  36 C36           10.0312     2.1069    -0.7578 C.ar    
  37 C37            8.7419     2.5659    -0.9584 C.ar    
  38 C38            8.0004     3.0524     0.1002 C.ar    
  39 C39           10.5762     2.1332     0.5127 C.ar    
  40 F40           11.8361     1.6906     0.7135 F       
  41 H41            1.2325    -1.7573    -0.0188 H       
  42 H42            3.3428    -0.4921    -0.0325 H       
  43 H43            1.1642     3.1741     0.0080 H       
  44 H44            3.5914     1.3922     2.9360 H       
  45 H45            3.8778     0.0501     1.7929 H       
  46 H46            3.6151     3.1919    -0.4397 H       
  47 H47            5.4834     2.2424     4.3468 H       
  48 H48            7.1214     1.5828     4.1436 H       
  49 H49           -0.9442    -2.1496    -1.6363 H       
  50 H50           -2.2917     0.1871     1.6552 H       
  51 H51           -3.3539    -4.1988    -0.6352 H       
  52 H52           -4.6381    -3.0364    -1.0450 H       
  53 H53           -3.3008    -3.3233    -2.1841 H       
  54 H54            7.7627     5.7231     2.9387 H       
  55 H55            7.8763     5.3315     1.2183 H       
  56 H56           -2.1570     3.8859     0.0334 H       
  57 H57           -0.6126     3.8191     0.9157 H       
  58 H58           -0.6210     3.8288    -0.8642 H       
  59 H59            5.7578     1.8922    -0.8217 H       
  60 H60            4.8931     0.3256    -0.3802 H       
  61 H61            5.5068    -0.0595     5.0210 H       
  62 H62            4.2882    -0.8108     3.9386 H       
  63 H63            7.2891    -1.3581     4.0924 H       
  64 H64            5.9322    -2.5325     3.9612 H       
  65 H65            7.1251    -1.9576     1.6893 H       
  66 H66            5.3508    -1.6714     1.7110 H       
  67 H67            8.9928     4.5546     3.9604 H       
  68 H68            7.6876     3.5744     4.6633 H       
  69 H69            9.8421     2.3786     4.8887 H       
  70 H70            8.8188     1.4992     3.7208 H       
  71 H71           11.0984     1.9210     2.9468 H       
  72 H72           10.6083     1.7249    -1.5862 H       
  73 H73            8.3135     2.5419    -1.9503 H       
  74 H74            6.9988     3.4166    -0.0734 H       
@<TRIPOS>BOND
   1    1    2 ar
   2    1    6 ar
   3    1   25 1
   4    2    3 ar
   5    2   15 1
   6    3    4 ar
   7    3   41 1
   8    4    5 ar
   9    4   42 1
  10    5    6 ar
  11    5    9 1
  12    6   43 1
  13    7    8 1
  14    7   10 1
  15    7   44 1
  16    7   45 1
  17    8    9 1
  18    8   26 1
  19    8   13 1
  20    9   26 1
  21    9   46 1
  22   10   11 1
  23   10   27 1
  24   10   30 1
  25   11   12 1
  26   11   47 1
  27   11   48 1
  28   12   13 1
  29   12   21 1
  30   13   14 2
  31   14   23 1
  32   15   16 1
  33   15   19 1
  34   16   17 2
  35   16   49 1
  36   17   18 1
  37   17   20 1
  38   18   19 2
  39   19   50 1
  40   20   51 1
  41   20   52 1
  42   20   53 1
  43   21   22 1
  44   21   31 1
  45   21   35 1
  46   22   23 1
  47   22   54 1
  48   22   55 1
  49   24   25 1
  50   24   56 1
  51   24   57 1
  52   24   58 1
  53   26   59 1
  54   26   60 1
  55   27   28 1
  56   27   61 1
  57   27   62 1
  58   28   29 1
  59   28   63 1
  60   28   64 1
  61   29   30 1
  62   29   65 1
  63   29   66 1
  64   31   32 1
  65   31   67 1
  66   31   68 1
  67   32   33 1
  68   32   69 1
  69   32   70 1
  70   33   34 1
  71   33   71 1
  72   34   35 ar
  73   34   39 ar
  74   35   38 ar
  75   36   37 ar
  76   36   39 ar
  77   36   72 1
  78   37   38 ar
  79   37   73 1
  80   38   74 1
  81   39   40 1

#	End of record

