#	Name: ASD03092413
#	Creating user name:	WinNT
#	Creation time:	15. 06. 2019 20:32

#	Modifying user name:	WinNT
#	Modification time:	15. 06. 2019 20:32

#	Program:	/corina/corina34_cracker 3.40 0067  02.08.2006

@<TRIPOS>MOLECULE
ASD03092413
  56   59    0    0    0
SMALL
NO_CHARGES


@<TRIPOS>ATOM
   1 C1            -0.1075     2.1280     0.7768 C.3     
   2 C2            -0.1176     0.6125     0.9866 C.3     
   3 C3             1.2123     1.3587     0.8620 C.3     
   4 C4            -0.5733     4.1601    -0.5659 C.2     
   5 C5            -0.5313     2.6540    -0.5961 C.3     
   6 O6            -0.2921     4.7543     0.4532 O.2     
   7 N7            -0.9235     4.8467    -1.6715 N.am    
   8 C8            -0.9644     6.3108    -1.6422 C.3     
   9 S9            -1.4027     7.7484    -5.3481 S.3     
  10 C10           -2.8739     7.3994    -4.5508 C.2     
  11 N11           -2.6423     6.9394    -3.3590 N.2     
  12 C12           -1.3818     6.8289    -2.9945 C.2     
  13 C13           -0.4962     7.2184    -3.9335 C.2     
  14 C14            1.7319     8.3220    -4.1542 C.ar    
  15 C15            0.9754     7.2034    -3.7997 C.ar    
  16 C16            1.6346     6.0676    -3.3150 C.ar    
  17 C17            3.0138     6.1051    -3.2085 C.ar    
  18 C18            3.6907     7.2524    -3.5807 C.ar    
  19 N19            3.0432     8.3086    -4.0345 N.ar    
  20 C20            5.1926     7.2970    -3.4657 C.3     
  21 N21           -4.1323     7.5813    -5.0976 N.3     
  22 C22           -4.0408     8.1170    -6.4636 C.3     
  23 C23           -5.4517     8.3584    -7.0069 C.3     
  24 O24           -6.1934     7.1368    -6.9529 O.3     
  25 C25           -6.3028     6.5873    -5.6371 C.3     
  26 C26           -4.9006     6.3280    -5.0799 C.3     
  27 C27           -7.0806     5.2711    -5.6961 C.3     
  28 C28           -5.3654     8.8401    -8.4565 C.3     
  29 H29           -0.3800     2.7554     1.6254 H       
  30 H30           -0.3968     0.2429     1.9733 H       
  31 H31           -0.4261    -0.0098     0.1466 H       
  32 H32            1.7787     1.2273    -0.0600 H       
  33 H33            1.8080     1.4800     1.7667 H       
  34 H34            0.1860     2.3255    -1.3482 H       
  35 H35           -1.5200     2.2678    -0.8437 H       
  36 H36           -1.1484     4.3714    -2.4867 H       
  37 H37           -1.6816     6.6393    -0.8901 H       
  38 H38            0.0244     6.6970    -1.3946 H       
  39 H39            1.2379     9.2041    -4.5339 H       
  40 H40            1.0809     5.1848    -3.0311 H       
  41 H41            3.5560     5.2476    -2.8383 H       
  42 H42            5.6389     6.9471    -4.3965 H       
  43 H43            5.5120     8.3211    -3.2720 H       
  44 H44            5.5134     6.6551    -2.6452 H       
  45 H45           -3.4903     9.0576    -6.4495 H       
  46 H46           -3.5228     7.4008    -7.1014 H       
  47 H47           -5.9507     9.1143    -6.4005 H       
  48 H48           -6.8266     7.2917    -4.9909 H       
  49 H49           -4.3963     5.5832    -5.6956 H       
  50 H50           -4.9776     5.9627    -4.0558 H       
  51 H51           -6.5548     4.5670    -6.3409 H       
  52 H52           -7.1637     4.8529    -4.6929 H       
  53 H53           -8.0775     5.4558    -6.0964 H       
  54 H54           -4.8679     8.0826    -9.0621 H       
  55 H55           -6.3701     9.0118    -8.8427 H       
  56 H56           -4.7967     9.7691    -8.4974 H       
@<TRIPOS>BOND
   1    1    2 1
   2    1    3 1
   3    1    5 1
   4    1   29 1
   5    2    3 1
   6    2   30 1
   7    2   31 1
   8    3   32 1
   9    3   33 1
  10    4    5 1
  11    4    6 2
  12    4    7 am
  13    5   34 1
  14    5   35 1
  15    7    8 1
  16    7   36 1
  17    8   12 1
  18    8   37 1
  19    8   38 1
  20    9   10 1
  21    9   13 1
  22   10   11 2
  23   10   21 1
  24   11   12 1
  25   12   13 2
  26   13   15 1
  27   14   15 ar
  28   14   19 ar
  29   14   39 1
  30   15   16 ar
  31   16   17 ar
  32   16   40 1
  33   17   18 ar
  34   17   41 1
  35   18   19 ar
  36   18   20 1
  37   20   42 1
  38   20   43 1
  39   20   44 1
  40   21   22 1
  41   21   26 1
  42   22   23 1
  43   22   45 1
  44   22   46 1
  45   23   24 1
  46   23   28 1
  47   23   47 1
  48   24   25 1
  49   25   26 1
  50   25   27 1
  51   25   48 1
  52   26   49 1
  53   26   50 1
  54   27   51 1
  55   27   52 1
  56   27   53 1
  57   28   54 1
  58   28   55 1
  59   28   56 1

#	End of record

