#	Name: ASD07300591
#	Creating user name:	WinNT
#	Creation time:	15. 06. 2019 21:10

#	Modifying user name:	WinNT
#	Modification time:	15. 06. 2019 21:10

#	Program:	/corina/corina34_cracker 3.40 0067  02.08.2006

@<TRIPOS>MOLECULE
ASD07300591
  53   57    0    0    0
SMALL
NO_CHARGES


@<TRIPOS>ATOM
   1 C1            -0.0173     1.4131    -0.0100 C.2     
   2 C2             0.0021    -0.0041     0.0020 C.2     
   3 N3             1.1782     2.0870    -0.0172 N.pl3   
   4 N4             1.1570    -0.6390     0.0060 N.2     
   5 C5             2.3160     0.0274    -0.0010 C.2     
   6 C6             2.3491     1.3749    -0.0122 C.2     
   7 N7            -0.9984     2.3007    -0.0112 N.2     
   8 C8            -0.4873     3.5284    -0.0251 C.2     
   9 C9             0.8871     3.4238    -0.0283 C.2     
  10 C10            2.9634     4.5215     0.8110 C.ar    
  11 C11            1.8576     4.5387    -0.0382 C.ar    
  12 C12            1.6799     5.6282    -0.9017 C.ar    
  13 C13            2.6130     6.6455    -0.8753 C.ar    
  14 C14            3.6912     6.5569     0.0007 C.ar    
  15 N15            3.8309     5.5135     0.8045 N.ar    
  16 N16            4.6348     7.5777     0.0320 N.3     
  17 C17            5.6859     7.2931     1.0188 C.3     
  18 C18            6.7438     8.3978     0.9663 C.3     
  19 N19            6.1080     9.6947     1.2376 N.3     
  20 C20            5.0568     9.9793     0.2508 C.3     
  21 C21            3.9989     8.8745     0.3033 C.3     
  22 N22           -1.1861    -0.7177     0.0100 N.pl3   
  23 C23           -1.1896    -2.1845    -0.1073 C.3     
  24 C24           -2.0522    -2.7579     1.0227 C.3     
  25 O25           -3.3301    -2.1170     1.0109 O.3     
  26 C26           -3.2810    -0.7092     1.2547 C.3     
  27 C27           -2.4810    -0.0313     0.1422 C.3     
  28 C28           -1.2753     4.8130    -0.0315 C.3     
  29 H29            3.2442    -0.5248     0.0026 H       
  30 H30            3.2969     1.8925    -0.0181 H       
  31 H31            3.1081     3.6891     1.4838 H       
  32 H32            0.8338     5.6709    -1.5717 H       
  33 H33            2.5079     7.5001    -1.5272 H       
  34 H34            5.2479     7.2561     2.0163 H       
  35 H35            6.1501     6.3339     0.7893 H       
  36 H36            7.5096     8.2041     1.7174 H       
  37 H37            7.2010     8.4169    -0.0230 H       
  38 H38            5.7408     9.7279     2.1768 H       
  39 H39            4.5927    10.9384     0.4803 H       
  40 H40            5.4948    10.0162    -0.7467 H       
  41 H41            3.2332     9.0683    -0.4478 H       
  42 H42            3.5418     8.8555     1.2926 H       
  43 H43           -1.6073    -2.4747    -1.0714 H       
  44 H44           -0.1709    -2.5622    -0.0194 H       
  45 H45           -2.1812    -3.8300     0.8742 H       
  46 H46           -1.5638    -2.5784     1.9805 H       
  47 H47           -4.2941    -0.3073     1.2730 H       
  48 H48           -2.7971    -0.5223     2.2133 H       
  49 H49           -2.3172     1.0161     0.3953 H       
  50 H50           -3.0310    -0.1010    -0.7963 H       
  51 H51           -1.4584     5.1320     0.9946 H       
  52 H52           -0.7100     5.5834    -0.5560 H       
  53 H53           -2.2273     4.6529    -0.5376 H       
@<TRIPOS>BOND
   1    1    2 1
   2    1    3 1
   3    1    7 2
   4    2    4 2
   5    2   22 1
   6    3    6 1
   7    3    9 1
   8    4    5 1
   9    5    6 2
  10    5   29 1
  11    6   30 1
  12    7    8 1
  13    8    9 2
  14    8   28 1
  15    9   11 1
  16   10   11 ar
  17   10   15 ar
  18   10   31 1
  19   11   12 ar
  20   12   13 ar
  21   12   32 1
  22   13   14 ar
  23   13   33 1
  24   14   15 ar
  25   14   16 1
  26   16   17 1
  27   16   21 1
  28   17   18 1
  29   17   34 1
  30   17   35 1
  31   18   19 1
  32   18   36 1
  33   18   37 1
  34   19   20 1
  35   19   38 1
  36   20   21 1
  37   20   39 1
  38   20   40 1
  39   21   41 1
  40   21   42 1
  41   22   23 1
  42   22   27 1
  43   23   24 1
  44   23   43 1
  45   23   44 1
  46   24   25 1
  47   24   45 1
  48   24   46 1
  49   25   26 1
  50   26   27 1
  51   26   47 1
  52   26   48 1
  53   27   49 1
  54   27   50 1
  55   28   51 1
  56   28   52 1
  57   28   53 1

#	End of record

