#	Name: ASD01470028
#	Creating user name:	WinNT
#	Creation time:	15. 06. 2019 19:21

#	Modifying user name:	WinNT
#	Modification time:	15. 06. 2019 19:21

#	Program:	/corina/corina34_cracker 3.40 0067  02.08.2006

@<TRIPOS>MOLECULE
ASD01470028
  84   90    0    0    0
SMALL
NO_CHARGES


@<TRIPOS>ATOM
   1 N1            -1.6827     1.4055     0.5955 N.am    
   2 C2            -0.3491     0.9601     0.2008 C.3     
   3 C3             0.1935    -0.0777     1.1935 C.3     
   4 C4            -0.2704    -1.4855     0.8530 C.3     
   5 C5            -1.6397    -1.4769     0.1936 C.3     
   6 N6            -2.6072    -0.7455     1.0126 N.am    
   7 C7            -2.6416     0.5985     1.0206 C.2     
   8 O8            -3.6522     1.1209     1.4497 O.2     
   9 C9            -3.5540    -1.4918     1.8449 C.3     
  10 C10           -1.9761     2.8389     0.5217 C.3     
  11 C11           -1.7123     3.4753     1.8621 C.ar    
  12 C12           -2.9968    -1.6309     3.2382 C.ar    
  13 C13           -3.1421    -0.6077     4.1294 C.ar    
  14 C14           -2.6247    -0.7382     5.4232 C.ar    
  15 C15           -1.9598    -1.9237     5.7913 C.ar    
  16 C16           -1.8272    -2.9510     4.8602 C.ar    
  17 C17           -2.3450    -2.8021     3.6050 C.ar    
  18 C18           -0.4330     3.8776     2.1963 C.ar    
  19 C19           -0.1910     4.4614     3.4259 C.ar    
  20 C20           -1.2285     4.6431     4.3208 C.ar    
  21 C21           -2.5084     4.2416     3.9862 C.ar    
  22 C22           -2.7511     3.6619     2.7552 C.ar    
  23 C23           -2.5990     0.1280     6.5973 C.2     
  24 N24           -1.9754    -0.5083     7.5474 N.2     
  25 N25           -1.5680    -1.7676     7.0952 N.pl3   
  26 C26           -0.4186     0.3352    -1.1940 C.3     
  27 O27            1.6218    -0.0409     1.1691 O.3     
  28 C28            0.4425     1.1281    -2.1432 C.ar    
  29 C29            1.7449     0.7346    -2.3877 C.ar    
  30 C30            2.5347     1.4619    -3.2584 C.ar    
  31 C31            2.0220     2.5825    -3.8848 C.ar    
  32 C32            0.7194     2.9755    -3.6409 C.ar    
  33 C33           -0.0719     2.2457    -2.7736 C.ar    
  34 C34           -2.1206    -2.9180     0.0121 C.3     
  35 O35           -0.3347    -2.2590     2.0528 O.3     
  36 C36           -1.2018    -3.6379    -0.9411 C.ar    
  37 C37           -0.0657    -4.2652    -0.4650 C.ar    
  38 C38            0.7772    -4.9255    -1.3393 C.ar    
  39 C39            0.4837    -4.9589    -2.6897 C.ar    
  40 C40           -0.6529    -4.3323    -3.1657 C.ar    
  41 C41           -1.4980    -3.6757    -2.2908 C.ar    
  42 C42           -3.6395     4.4393     4.9621 C.3     
  43 N43           -4.3312     5.6950     4.6601 N.pl3   
  44 C44           -5.6442     5.8539     4.4194 C.2     
  45 N45           -5.8648     7.1236     4.1939 N.2     
  46 C46           -4.7222     7.8034     4.2816 C.2     
  47 N47           -3.7552     6.9728     4.5706 N.2     
  48 H48            0.3229     1.8179     0.1750 H       
  49 H49           -0.1520     0.1763     2.1956 H       
  50 H50            0.4491    -1.9431     0.1740 H       
  51 H51           -1.5643    -1.0008    -0.7840 H       
  52 H52           -4.5028    -0.9568     1.8848 H       
  53 H53           -3.7126    -2.4815     1.4166 H       
  54 H54           -1.3391     3.3019    -0.2320 H       
  55 H55           -3.0222     2.9822     0.2511 H       
  56 H56           -3.6533     0.2978     3.8379 H       
  57 H57           -1.3189    -3.8647     5.1311 H       
  58 H58           -2.2401    -3.6015     2.8865 H       
  59 H59            0.3777     3.7355     1.4970 H       
  60 H60            0.8089     4.7750     3.6874 H       
  61 H61           -1.0393     5.0985     5.2817 H       
  62 H62           -3.7510     3.3482     2.4937 H       
  63 H63           -3.0215     1.1195     6.6661 H       
  64 H64           -1.0857    -2.4252     7.6204 H       
  65 H65           -0.0592    -0.6929    -1.1498 H       
  66 H66           -1.4504     0.3446    -1.5453 H       
  67 H67            2.0418    -0.6701     1.7715 H       
  68 H68            2.1454    -0.1409    -1.8983 H       
  69 H69            3.5525     1.1549    -3.4489 H       
  70 H70            2.6394     3.1512    -4.5644 H       
  71 H71            0.3189     3.8511    -4.1300 H       
  72 H72           -1.0896     2.5527    -2.5831 H       
  73 H73           -2.1152    -3.4269     0.9760 H       
  74 H74           -3.1330    -2.9150    -0.3916 H       
  75 H75            0.5105    -2.3374     2.5160 H       
  76 H76            0.1636    -4.2391     0.5901 H       
  77 H77            1.6651    -5.4150    -0.9674 H       
  78 H78            1.1425    -5.4741    -3.3730 H       
  79 H79           -0.8820    -4.3581    -4.2208 H       
  80 H80           -2.3860    -3.1862    -2.6627 H       
  81 H81           -4.3408     3.6091     4.8786 H       
  82 H82           -3.2418     4.4784     5.9762 H       
  83 H83           -6.3871     5.0701     4.4127 H       
  84 H84           -4.6134     8.8687     4.1410 H       
@<TRIPOS>BOND
   1    1    2 1
   2    1   10 1
   3    1    7 am
   4    2    3 1
   5    2   26 1
   6    2   48 1
   7    3    4 1
   8    3   27 1
   9    3   49 1
  10    4    5 1
  11    4   35 1
  12    4   50 1
  13    5    6 1
  14    5   34 1
  15    5   51 1
  16    6    7 am
  17    6    9 1
  18    7    8 2
  19    9   12 1
  20    9   52 1
  21    9   53 1
  22   10   11 1
  23   10   54 1
  24   10   55 1
  25   11   18 ar
  26   11   22 ar
  27   12   13 ar
  28   12   17 ar
  29   13   14 ar
  30   13   56 1
  31   14   15 ar
  32   14   23 1
  33   15   16 ar
  34   15   25 1
  35   16   17 ar
  36   16   57 1
  37   17   58 1
  38   18   19 ar
  39   18   59 1
  40   19   20 ar
  41   19   60 1
  42   20   21 ar
  43   20   61 1
  44   21   22 ar
  45   21   42 1
  46   22   62 1
  47   23   24 2
  48   23   63 1
  49   24   25 1
  50   25   64 1
  51   26   28 1
  52   26   65 1
  53   26   66 1
  54   27   67 1
  55   28   29 ar
  56   28   33 ar
  57   29   30 ar
  58   29   68 1
  59   30   31 ar
  60   30   69 1
  61   31   32 ar
  62   31   70 1
  63   32   33 ar
  64   32   71 1
  65   33   72 1
  66   34   36 1
  67   34   73 1
  68   34   74 1
  69   35   75 1
  70   36   37 ar
  71   36   41 ar
  72   37   38 ar
  73   37   76 1
  74   38   39 ar
  75   38   77 1
  76   39   40 ar
  77   39   78 1
  78   40   41 ar
  79   40   79 1
  80   41   80 1
  81   42   43 1
  82   42   81 1
  83   42   82 1
  84   43   44 1
  85   43   47 1
  86   44   45 2
  87   44   83 1
  88   45   46 1
  89   46   47 2
  90   46   84 1

#	End of record

