#	Name: ASD01141118
#	Creating user name:	WinNT
#	Creation time:	15. 06. 2019 19:01

#	Modifying user name:	WinNT
#	Modification time:	15. 06. 2019 19:01

#	Program:	/corina/corina34_cracker 3.40 0067  02.08.2006

@<TRIPOS>MOLECULE
ASD01141118
  68   73    0    0    0
SMALL
NO_CHARGES


@<TRIPOS>ATOM
   1 C1            -0.0189     1.5394     0.0105 C.3     
   2 C2             0.0021    -0.0041     0.0020 C.3     
   3 C3             1.4347     1.9785    -0.0010 C.3     
   4 C4             1.5001    -0.4155     0.0649 C.3     
   5 C5             1.9270     2.0928    -1.4451 C.3     
   6 C6             2.1659     0.8057     0.7097 C.3     
   7 C7             1.7803     3.2440     0.7578 C.3     
   8 C8             3.6469     0.9761     0.4300 C.3     
   9 H9             1.9772     0.8329     1.7829 H       
  10 C10            3.2925     3.4746     0.5977 C.3     
  11 C11            4.4405    -0.1876     1.0255 C.3     
  12 C12            4.0933     2.2845     1.1009 C.3     
  13 H13            3.8131     1.0389    -0.6455 H       
  14 C14            5.9323     0.0279     0.7616 C.3     
  15 C15            5.5825     2.5026     0.8289 C.3     
  16 H16            3.9508     2.1958     2.1779 H       
  17 C17            6.3841     1.3369     1.4116 C.3     
  18 C18            6.0350     3.8097     1.4831 C.3     
  19 C19            7.8734     1.5551     1.1361 C.3     
  20 H20            6.2184     1.2842     2.4877 H       
  21 C21            7.5242     4.0283     1.2083 C.3     
  22 C22            8.3264     2.8623     1.7894 C.3     
  23 O23            8.1084     2.7904     3.1998 O.3     
  24 H24            8.3735     3.5868     3.6799 H       
  25 C25            5.8191     2.5799    -0.6807 C.3     
  26 H26            3.5183     3.6396    -0.4559 H       
  27 O27           -1.0445     2.2595    -0.6616 O.3     
  28 C28           -1.0994     2.3015     0.7673 C.3     
  29 O29            4.0209    -1.4112     0.4183 O.3     
  30 C30            3.6681    -3.7800     0.5321 C.ar    
  31 C31            4.5679    -4.5281    -0.2038 C.ar    
  32 C32            4.1404    -5.6574    -0.8767 C.ar    
  33 C33            2.8133    -6.0389    -0.8133 C.ar    
  34 C34            1.9137    -5.2914    -0.0766 C.ar    
  35 C35            2.3408    -4.1612     0.5952 C.ar    
  36 C36            4.1353    -2.5523     1.2708 C.3     
  37 H37           -0.5300    -0.3912     0.8710 H       
  38 H38           -0.4520    -0.3803    -0.9147 H       
  39 H39            1.6311    -1.3000     0.6883 H       
  40 H40            1.8953    -0.5863    -0.9364 H       
  41 H41            1.3401     2.8462    -1.9705 H       
  42 H42            2.9777     2.3830    -1.4489 H       
  43 H43            1.8141     1.1307    -1.9447 H       
  44 H44            1.2303     4.0880     0.3414 H       
  45 H45            1.5332     3.1232     1.8125 H       
  46 H46            3.5802     4.3596     1.1654 H       
  47 H47            4.2643    -0.2358     2.1001 H       
  48 H48            6.4992    -0.8017     1.1840 H       
  49 H49            6.1074     0.0769    -0.3131 H       
  50 H50            5.4633     4.6402     1.0690 H       
  51 H51            5.8683     3.7543     2.5588 H       
  52 H52            8.4451     0.7247     1.5504 H       
  53 H53            8.0397     1.6099     0.0602 H       
  54 H54            7.6909     4.0837     0.1325 H       
  55 H55            7.8468     4.9594     1.6744 H       
  56 H56            9.3873     3.0179     1.5933 H       
  57 H57            5.2484     3.4106    -1.0959 H       
  58 H58            6.8804     2.7354    -0.8746 H       
  59 H59            5.4971     1.6488    -1.1471 H       
  60 H60           -1.8777     1.7216     1.2633 H       
  61 H61           -0.8153     3.2315     1.2597 H       
  62 H62            5.6047    -4.2300    -0.2533 H       
  63 H63            4.8433    -6.2415    -1.4522 H       
  64 H64            2.4792    -6.9209    -1.3396 H       
  65 H65            0.8767    -5.5890    -0.0276 H       
  66 H66            1.6378    -3.5768     1.1701 H       
  67 H67            5.1761    -2.6811     1.5678 H       
  68 H68            3.5196    -2.4060     2.1583 H       
@<TRIPOS>BOND
   1    1    2 1
   2    1    3 1
   3    1   27 1
   4    1   28 1
   5    2    4 1
   6    2   37 1
   7    2   38 1
   8    3    5 1
   9    3    6 1
  10    3    7 1
  11    4    6 1
  12    4   39 1
  13    4   40 1
  14    5   41 1
  15    5   42 1
  16    5   43 1
  17    6    8 1
  18    6    9 1
  19    7   10 1
  20    7   44 1
  21    7   45 1
  22    8   12 1
  23    8   13 1
  24    8   11 1
  25   10   12 1
  26   10   26 1
  27   10   46 1
  28   11   29 1
  29   11   14 1
  30   11   47 1
  31   12   15 1
  32   12   16 1
  33   14   17 1
  34   14   48 1
  35   14   49 1
  36   15   17 1
  37   15   25 1
  38   15   18 1
  39   17   19 1
  40   17   20 1
  41   18   21 1
  42   18   50 1
  43   18   51 1
  44   19   22 1
  45   19   52 1
  46   19   53 1
  47   21   22 1
  48   21   54 1
  49   21   55 1
  50   22   23 1
  51   22   56 1
  52   23   24 1
  53   25   57 1
  54   25   58 1
  55   25   59 1
  56   27   28 1
  57   28   60 1
  58   28   61 1
  59   29   36 1
  60   30   31 ar
  61   30   35 ar
  62   30   36 1
  63   31   32 ar
  64   31   62 1
  65   32   33 ar
  66   32   63 1
  67   33   34 ar
  68   33   64 1
  69   34   35 ar
  70   34   65 1
  71   35   66 1
  72   36   67 1
  73   36   68 1

#	End of record

