#	Name: ASD04910048
#	Creating user name:	WinNT
#	Creation time:	15. 06. 2019 20:55

#	Modifying user name:	WinNT
#	Modification time:	15. 06. 2019 20:55

#	Program:	/corina/corina34_cracker 3.40 0067  02.08.2006

@<TRIPOS>MOLECULE
ASD04910048
  74   76    0    0    0
SMALL
NO_CHARGES


@<TRIPOS>ATOM
   1 C1             0.5192     1.3040     0.0989 C.ar    
   2 C2             0.3971    -0.0799     0.0482 C.ar    
   3 C3             1.5311    -0.8759    -0.0664 C.ar    
   4 C4             2.7792    -0.2941    -0.1306 C.ar    
   5 C5             2.9038     1.0934    -0.0804 C.ar    
   6 C6             1.7654     1.8898     0.0351 C.ar    
   7 C7             4.2459     1.7216    -0.1488 C.ar    
   8 C8             4.3723     3.1086    -0.0987 C.ar    
   9 C9             5.6235     3.6876    -0.1628 C.ar    
  10 C10            6.7507     2.8940    -0.2769 C.ar    
  11 C11            6.6311     1.5168    -0.3270 C.ar    
  12 C12            5.3855     0.9267    -0.2575 C.ar    
  13 C13            8.1140     3.5322    -0.3474 C.3     
  14 C14            8.3614     4.3483     0.9229 C.3     
  15 C15            9.1814     2.4429    -0.4697 C.3     
  16 C16            8.1835     4.4535    -1.5670 C.3     
  17 N17           -0.8655    -0.6709     0.1130 N.pl3   
  18 C18           -1.0046    -2.1207    -0.0449 C.3     
  19 C19           -0.8111    -2.8023     1.3112 C.3     
  20 C20           -2.3789    -2.4387    -0.5753 C.ar    
  21 C21           -0.8343    -4.3210     1.1266 C.3     
  22 C22            0.3793    -4.7530     0.3012 C.3     
  23 C23           -0.7883    -5.0019     2.4960 C.3     
  24 C24           -4.7372    -2.0230    -0.5907 C.ar    
  25 C25           -3.4764    -1.7369    -0.1093 C.ar    
  26 C26           -2.5368    -3.4273    -1.5303 C.ar    
  27 C27           -3.7920    -3.7230    -2.0204 C.ar    
  28 C28           -4.9041    -3.0224    -1.5506 C.ar    
  29 C29           -6.2523    -3.3344    -2.0709 C.2     
  30 O30           -7.2185    -2.7200    -1.6628 O.2     
  31 N31           -6.4101    -4.3000    -2.9978 N.am    
  32 C32           -7.7461    -4.6092    -3.5134 C.3     
  33 C33           -7.6467    -5.7344    -4.5453 C.3     
  34 C34           -9.0210    -6.0525    -5.0757 C.2     
  35 O35           -9.1782    -7.0142    -5.9988 O.3     
  36 O36           -9.9814    -5.4418    -4.6700 O.2     
  37 H37           -0.3633     1.9208     0.1838 H       
  38 H38            1.4342    -1.9509    -0.1049 H       
  39 H39            3.6599    -0.9129    -0.2193 H       
  40 H40            1.8598     2.9649     0.0741 H       
  41 H41            3.4928     3.7292    -0.0104 H       
  42 H42            5.7226     4.7623    -0.1241 H       
  43 H43            7.5146     0.9020    -0.4165 H       
  44 H44            5.2936    -0.1488    -0.2918 H       
  45 H45            8.3120     3.6920     1.7918 H       
  46 H46            9.3475     4.8099     0.8720 H       
  47 H47            7.6010     5.1244     1.0101 H       
  48 H48            9.0051     1.8615    -1.3747 H       
  49 H49           10.1675     2.9045    -0.5207 H       
  50 H50            9.1319     1.7865     0.3992 H       
  51 H51            7.4231     5.2295    -1.4798 H       
  52 H52            9.1696     4.9151    -1.6180 H       
  53 H53            8.0072     3.8721    -2.4720 H       
  54 H54           -1.6510    -0.1218     0.2625 H       
  55 H55           -0.2521    -2.4839    -0.7448 H       
  56 H56            0.1473    -2.5024     1.7350 H       
  57 H57           -1.6150    -2.5058     1.9849 H       
  58 H58           -1.7482    -4.6100     0.6077 H       
  59 H59            1.2932    -4.4978     0.8377 H       
  60 H60            0.3427    -5.8301     0.1377 H       
  61 H61            0.3667    -4.2390    -0.6599 H       
  62 H62           -1.6529    -4.6941     3.0840 H       
  63 H63           -0.8049    -6.0838     2.3645 H       
  64 H64            0.1256    -4.7129     3.0150 H       
  65 H65           -5.5932    -1.4749    -0.2256 H       
  66 H66           -3.3459    -0.9635     0.6332 H       
  67 H67           -1.6755    -3.9684    -1.8932 H       
  68 H68           -3.9139    -4.4947    -2.7661 H       
  69 H69           -5.6391    -4.7903    -3.3236 H       
  70 H70           -8.3885    -4.9255    -2.6916 H       
  71 H71           -8.1685    -3.7212    -3.9837 H       
  72 H72           -7.0043    -5.4181    -5.3671 H       
  73 H73           -7.2243    -6.6224    -4.0750 H       
  74 H74          -10.0786    -7.1822    -6.3088 H       
@<TRIPOS>BOND
   1    1    2 ar
   2    1    6 ar
   3    1   37 1
   4    2    3 ar
   5    2   17 1
   6    3    4 ar
   7    3   38 1
   8    4    5 ar
   9    4   39 1
  10    5    6 ar
  11    5    7 1
  12    6   40 1
  13    7    8 ar
  14    7   12 ar
  15    8    9 ar
  16    8   41 1
  17    9   10 ar
  18    9   42 1
  19   10   11 ar
  20   10   13 1
  21   11   12 ar
  22   11   43 1
  23   12   44 1
  24   13   14 1
  25   13   15 1
  26   13   16 1
  27   14   45 1
  28   14   46 1
  29   14   47 1
  30   15   48 1
  31   15   49 1
  32   15   50 1
  33   16   51 1
  34   16   52 1
  35   16   53 1
  36   17   18 1
  37   17   54 1
  38   18   19 1
  39   18   20 1
  40   18   55 1
  41   19   21 1
  42   19   56 1
  43   19   57 1
  44   20   26 ar
  45   20   25 ar
  46   21   22 1
  47   21   23 1
  48   21   58 1
  49   22   59 1
  50   22   60 1
  51   22   61 1
  52   23   62 1
  53   23   63 1
  54   23   64 1
  55   24   25 ar
  56   24   28 ar
  57   24   65 1
  58   25   66 1
  59   26   27 ar
  60   26   67 1
  61   27   28 ar
  62   27   68 1
  63   28   29 1
  64   29   30 2
  65   29   31 am
  66   31   32 1
  67   31   69 1
  68   32   33 1
  69   32   70 1
  70   32   71 1
  71   33   34 1
  72   33   72 1
  73   33   73 1
  74   34   35 1
  75   34   36 2
  76   35   74 1

#	End of record

