#	Name: ASD02500683
#	Creating user name:	WinNT
#	Creation time:	15. 06. 2019 20:23

#	Modifying user name:	WinNT
#	Modification time:	15. 06. 2019 20:23

#	Program:	/corina/corina34_cracker 3.40 0067  02.08.2006

@<TRIPOS>MOLECULE
ASD02500683
  69   73    0    0    0
SMALL
NO_CHARGES


@<TRIPOS>ATOM
   1 N1            -3.0312     5.2961     0.7894 N.ar    
   2 C2            -4.1999     5.8572     0.9834 C.ar    
   3 C3            -5.0157     5.5005     2.0552 C.ar    
   4 C4            -4.6030     4.5423     2.9366 C.ar    
   5 C5            -3.3476     3.9416     2.7249 C.ar    
   6 C6            -2.8564     2.9500     3.5888 C.ar    
   7 C7            -1.6368     2.3934     3.3501 C.ar    
   8 C8            -0.8688     2.7951     2.2594 C.ar    
   9 C9            -1.3141     3.7536     1.4018 C.ar    
  10 C10           -2.5681     4.3519     1.6148 C.ar    
  11 S11           -0.3220     4.2434     0.0305 S.o2    
  12 O12           -0.2976     5.6641     0.0400 O.2     
  13 O13            0.8528     3.4456     0.0799 O.2     
  14 N14           -1.1317     3.7988    -1.3439 N.am    
  15 C15           -1.3641     2.4537    -1.6097 C.ar    
  16 C16           -2.6284     2.0346    -2.0062 C.ar    
  17 C17           -2.8596     0.6965    -2.2710 C.ar    
  18 C18           -1.8125    -0.2293    -2.1367 C.ar    
  19 C19           -0.5458     0.2083    -1.7367 C.ar    
  20 C20           -0.3270     1.5317    -1.4830 C.ar    
  21 C21           -2.0473    -1.6557    -2.4154 C.2     
  22 O22           -2.9511    -2.2444    -1.8534 O.2     
  23 N23           -1.2608    -2.3091    -3.2934 N.am    
  24 C24           -1.5354    -3.7074    -3.6576 C.3     
  25 C25           -1.5639    -3.8159    -5.1858 C.3     
  26 N26           -0.3187    -3.2638    -5.7360 N.3     
  27 C27           -0.1899    -1.8326    -5.4310 C.3     
  28 C28           -0.1087    -1.6410    -3.9175 C.3     
  29 C29           -0.2304    -3.5038    -7.1826 C.3     
  30 C30            0.9240    -2.7202    -7.7522 C.ar    
  31 C31            2.1818    -3.2910    -7.8143 C.ar    
  32 C32            3.2416    -2.5747    -8.3361 C.ar    
  33 C33            3.0430    -1.2817    -8.7980 C.ar    
  34 C34            1.7799    -0.7113    -8.7346 C.ar    
  35 C35            0.7222    -1.4338    -8.2171 C.ar    
  36 O36            4.0840    -0.5749    -9.3113 O.3     
  37 C37            3.8060     0.7503    -9.7678 C.3     
  38 O38           -4.0916     0.2810    -2.6580 O.3     
  39 C39           -5.1070     1.2800    -2.7724 C.3     
  40 H40           -4.5393     6.6165     0.2944 H       
  41 H41           -5.9734     5.9814     2.1889 H       
  42 H42           -5.2224     4.2538     3.7730 H       
  43 H43           -3.4423     2.6308     4.4381 H       
  44 H44           -1.2598     1.6306     4.0153 H       
  45 H45            0.0957     2.3389     2.0919 H       
  46 H46           -1.4439     4.4766    -1.9637 H       
  47 H47           -3.4292     2.7522    -2.1071 H       
  48 H48            0.2617    -0.5013    -1.6325 H       
  49 H49            0.6540     1.8653    -1.1787 H       
  50 H50           -0.7504    -4.3504    -3.2594 H       
  51 H51           -2.5008    -4.0089    -3.2510 H       
  52 H52           -1.6563    -4.8629    -5.4745 H       
  53 H53           -2.4136    -3.2546    -5.5745 H       
  54 H54            0.7142    -1.4412    -5.8976 H       
  55 H55           -1.0587    -1.2990    -5.8163 H       
  56 H56           -0.1313    -0.5768    -3.6827 H       
  57 H57            0.8161    -2.0814    -3.5448 H       
  58 H58           -0.0734    -4.5668    -7.3656 H       
  59 H59           -1.1567    -3.1857    -7.6609 H       
  60 H60            2.3359    -4.2975    -7.4543 H       
  61 H61            4.2240    -3.0209    -8.3841 H       
  62 H62            1.6228     0.2951    -9.0935 H       
  63 H63           -0.2622    -0.9919    -8.1719 H       
  64 H64            4.7208     1.2016   -10.1523 H       
  65 H65            3.0587     0.7123   -10.5604 H       
  66 H66            3.4266     1.3480    -8.9391 H       
  67 H67           -5.2511     1.7638    -1.8063 H       
  68 H68           -4.8037     2.0236    -3.5094 H       
  69 H69           -6.0406     0.8147    -3.0886 H       
@<TRIPOS>BOND
   1    1    2 ar
   2    1   10 ar
   3    2    3 ar
   4    2   40 1
   5    3    4 ar
   6    3   41 1
   7    4    5 ar
   8    4   42 1
   9    5    6 ar
  10    5   10 ar
  11    6    7 ar
  12    6   43 1
  13    7    8 ar
  14    7   44 1
  15    8    9 ar
  16    8   45 1
  17    9   10 ar
  18    9   11 1
  19   11   12 2
  20   11   13 2
  21   11   14 am
  22   14   15 1
  23   14   46 1
  24   15   16 ar
  25   15   20 ar
  26   16   17 ar
  27   16   47 1
  28   17   18 ar
  29   17   38 1
  30   18   19 ar
  31   18   21 1
  32   19   20 ar
  33   19   48 1
  34   20   49 1
  35   21   22 2
  36   21   23 am
  37   23   24 1
  38   23   28 1
  39   24   25 1
  40   24   50 1
  41   24   51 1
  42   25   26 1
  43   25   52 1
  44   25   53 1
  45   26   27 1
  46   26   29 1
  47   27   28 1
  48   27   54 1
  49   27   55 1
  50   28   56 1
  51   28   57 1
  52   29   30 1
  53   29   58 1
  54   29   59 1
  55   30   31 ar
  56   30   35 ar
  57   31   32 ar
  58   31   60 1
  59   32   33 ar
  60   32   61 1
  61   33   34 ar
  62   33   36 1
  63   34   35 ar
  64   34   62 1
  65   35   63 1
  66   36   37 1
  67   37   64 1
  68   37   65 1
  69   37   66 1
  70   38   39 1
  71   39   67 1
  72   39   68 1
  73   39   69 1

#	End of record

