#	Name: ASD01810663
#	Creating user name:	WinNT
#	Creation time:	15. 06. 2019 19:25

#	Modifying user name:	WinNT
#	Modification time:	15. 06. 2019 19:25

#	Program:	/corina/corina34_cracker 3.40 0067  02.08.2006

@<TRIPOS>MOLECULE
ASD01810663
  55   59    0    0    0
SMALL
NO_CHARGES


@<TRIPOS>ATOM
   1 C1            -0.1849     1.0869    -0.8030 C.ar    
   2 C2             0.0029    -0.0030     0.0482 C.ar    
   3 C3            -1.0153    -0.4123     0.8873 C.ar    
   4 C4            -2.2252     0.2517     0.8905 C.ar    
   5 C5            -2.4284     1.3442     0.0437 C.ar    
   6 C6            -1.4027     1.7668    -0.8016 C.ar    
   7 C7            -3.7249     2.0535     0.0477 C.2     
   8 N8            -4.8746     1.3567    -0.0472 N.am    
   9 O9            -3.7543     3.2655     0.1366 O.2     
  10 C10           -6.1727     2.0338     0.0760 C.3     
  11 C11           -4.8538    -0.0935    -0.2820 C.3     
  12 C12           -5.7244    -0.4080    -1.5026 C.3     
  13 C13           -7.1236     0.1742    -1.2898 C.3     
  14 C14           -7.0258     1.6911    -1.1494 C.3     
  15 C15           -7.9929    -0.1625    -2.4738 C.ar    
  16 C16           -9.1450    -0.9071    -2.2927 C.ar    
  17 C17           -9.9456    -1.2186    -3.3721 C.ar    
  18 C18           -9.5910    -0.7805    -4.6496 C.ar    
  19 C19           -8.4270    -0.0294    -4.8252 C.ar    
  20 C20           -7.6384     0.2793    -3.7362 C.ar    
  21 C21          -10.4171    -1.1005    -5.7747 C.1     
  22 C22            0.9068     1.5236    -1.7001 C.2     
  23 N23            0.8526     2.5334    -2.5453 N.2     
  24 C24            2.0153     2.6311    -3.1824 C.2     
  25 C25            2.8346     1.6508    -2.7290 C.2     
  26 N26            2.1460     0.9517    -1.7891 N.pl3   
  27 C27            2.4405     3.6251    -4.2366 C.3     
  28 C28            3.9707     3.5624    -4.3485 C.3     
  29 O29            4.3911     2.1988    -4.4435 O.3     
  30 C30            4.2412     1.4488    -3.2300 C.3     
  31 N31          -11.0724    -1.3543    -6.6672 N.1     
  32 Cl32          -1.6454     3.1236    -1.8570 Cl      
  33 H33            0.9467    -0.5280     0.0507 H       
  34 H34           -0.8639    -1.2564     1.5438 H       
  35 H35           -3.0168    -0.0741     1.5490 H       
  36 H36           -6.6780     1.6934     0.9798 H       
  37 H37           -6.0193     3.1119     0.1245 H       
  38 H38           -3.8304    -0.4187    -0.4696 H       
  39 H39           -5.2493    -0.6109     0.5920 H       
  40 H40           -5.2773     0.0354    -2.3924 H       
  41 H41           -5.7954    -1.4881    -1.6304 H       
  42 H42           -7.5604    -0.2511    -0.3863 H       
  43 H43           -8.0240     2.1097    -1.0211 H       
  44 H44           -6.5672     2.1106    -2.0449 H       
  45 H45           -9.4178    -1.2456    -1.3041 H       
  46 H46          -10.8443    -1.8002    -3.2293 H       
  47 H47           -8.1468     0.3122    -5.8106 H       
  48 H48           -6.7379     0.8601    -3.8705 H       
  49 H49            2.4691     0.1900    -1.2829 H       
  50 H50            1.9891     3.3641    -5.1938 H       
  51 H51            2.1324     4.6287    -3.9436 H       
  52 H52            4.2917     4.1037    -5.2384 H       
  53 H53            4.4180     4.0192    -3.4657 H       
  54 H54            4.9524     1.8065    -2.4855 H       
  55 H55            4.4140     0.3907    -3.4270 H       
@<TRIPOS>BOND
   1    1    2 ar
   2    1   22 1
   3    1    6 ar
   4    2    3 ar
   5    2   33 1
   6    3    4 ar
   7    3   34 1
   8    4    5 ar
   9    4   35 1
  10    5    6 ar
  11    5    7 1
  12    6   32 1
  13    7    8 am
  14    7    9 2
  15    8   10 1
  16    8   11 1
  17   10   14 1
  18   10   36 1
  19   10   37 1
  20   11   12 1
  21   11   38 1
  22   11   39 1
  23   12   13 1
  24   12   40 1
  25   12   41 1
  26   13   14 1
  27   13   15 1
  28   13   42 1
  29   14   43 1
  30   14   44 1
  31   15   16 ar
  32   15   20 ar
  33   16   17 ar
  34   16   45 1
  35   17   18 ar
  36   17   46 1
  37   18   19 ar
  38   18   21 1
  39   19   20 ar
  40   19   47 1
  41   20   48 1
  42   21   31 3
  43   22   23 2
  44   22   26 1
  45   23   24 1
  46   24   25 2
  47   24   27 1
  48   25   26 1
  49   25   30 1
  50   26   49 1
  51   27   28 1
  52   27   50 1
  53   27   51 1
  54   28   29 1
  55   28   52 1
  56   28   53 1
  57   29   30 1
  58   30   54 1
  59   30   55 1

#	End of record

