#	Name: ASD01121004
#	Creating user name:	WinNT
#	Creation time:	15. 06. 2019 18:59

#	Modifying user name:	WinNT
#	Modification time:	15. 06. 2019 18:59

#	Program:	/corina/corina34_cracker 3.40 0067  02.08.2006

@<TRIPOS>MOLECULE
ASD01121004
  34   36    0    0    0
SMALL
NO_CHARGES


@<TRIPOS>ATOM
   1 C1            -0.0149     1.3417    -0.0174 C.2     
   2 N2             0.0058    -0.0057    -0.0395 N.am    
   3 O3            -1.0772     1.9333    -0.0098 O.2     
   4 N4             1.1417     2.0332     0.0021 N.am    
   5 S5            -1.4154    -0.8555    -0.0634 S.o2    
   6 O6            -1.0600    -2.2302    -0.1185 O.2     
   7 O7            -2.2300    -0.3037     0.9618 O.2     
   8 C8            -2.2175    -0.4874    -1.5885 C.ar    
   9 H9             0.8532    -0.4778    -0.0415 H       
  10 H10            1.9864     1.5634     0.0840 H       
  11 C11            1.1241     3.4266    -0.0957 C.ar    
  12 C12           -1.9718    -1.2656    -2.7037 C.ar    
  13 C13           -2.6022    -0.9768    -3.9011 C.ar    
  14 C14           -3.4780     0.0909    -3.9811 C.ar    
  15 C15           -3.7231     0.8687    -2.8648 C.ar    
  16 C16           -3.0971     0.5764    -1.6676 C.ar    
  17 Cl17          -2.2935    -1.9535    -5.3027 Cl      
  18 C18            0.1625     4.0571    -0.8601 C.ar    
  19 C19            0.1401     5.4425    -0.9611 C.ar    
  20 C20            1.0749     6.2097    -0.3023 C.ar    
  21 C21            2.0557     5.5978     0.4748 C.ar    
  22 C22            2.0823     4.1959     0.5885 C.ar    
  23 Br23          -1.1867     6.2830    -2.0140 Br      
  24 N24            3.0970     6.0716     1.2313 N.pl3   
  25 N25            3.7580     4.9746     1.7969 N.2     
  26 C26            3.1732     3.8715     1.4291 C.2     
  27 H27           -1.2876    -2.0989    -2.6408 H       
  28 H28           -3.9701     0.3171    -4.9155 H       
  29 H29           -4.4069     1.7023    -2.9271 H       
  30 H30           -3.2891     1.1841    -0.7957 H       
  31 H31           -0.5771     3.4692    -1.3833 H       
  32 H32            1.0479     7.2859    -0.3885 H       
  33 H33            3.3345     7.0042     1.3528 H       
  34 H34            3.4718     2.8742     1.7167 H       
@<TRIPOS>BOND
   1    1    2 am
   2    1    4 am
   3    1    3 2
   4    2    5 am
   5    2    9 1
   6    4   10 1
   7    4   11 1
   8    5    7 2
   9    5    8 1
  10    5    6 2
  11    8   12 ar
  12    8   16 ar
  13   11   18 ar
  14   11   22 ar
  15   12   13 ar
  16   12   27 1
  17   13   14 ar
  18   13   17 1
  19   14   15 ar
  20   14   28 1
  21   15   16 ar
  22   15   29 1
  23   16   30 1
  24   18   19 ar
  25   18   31 1
  26   19   20 ar
  27   19   23 1
  28   20   21 ar
  29   20   32 1
  30   21   22 ar
  31   21   24 1
  32   22   26 1
  33   24   25 1
  34   24   33 1
  35   25   26 2
  36   26   34 1

#	End of record

