#	Name: ASD02039220
#	Creating user name:	WinNT
#	Creation time:	15. 06. 2019 20:17

#	Modifying user name:	WinNT
#	Modification time:	15. 06. 2019 20:17

#	Program:	/corina/corina34_cracker 3.40 0067  02.08.2006

@<TRIPOS>MOLECULE
ASD02039220
  49   53    0    0    0
SMALL
NO_CHARGES


@<TRIPOS>ATOM
   1 N1            -0.2148     1.8758     0.0437 N.am    
   2 C2            -0.2206     0.5369     0.1667 C.2     
   3 C3             0.9773    -0.2030     0.2644 C.2     
   4 C4             2.1757     0.4308     0.2361 C.2     
   5 C5             2.1929     1.8887     0.1024 C.ar    
   6 C6             3.3980     2.5981     0.0664 C.ar    
   7 C7             3.3797     3.9581    -0.0602 C.ar    
   8 C8             2.1755     4.6429    -0.1535 C.ar    
   9 C9             0.9764     3.9647    -0.1202 C.ar    
  10 C10            0.9701     2.5795     0.0083 C.ar    
  11 O11           -1.2870    -0.0526     0.1950 O.2     
  12 C12            4.6781     4.7220    -0.0985 C.3     
  13 C13            4.9721     5.5532    -1.3489 C.3     
  14 C14            4.6015     6.2489    -0.0376 C.3     
  15 O15            7.4325     6.1333    -1.1011 O.3     
  16 N16            8.4527     6.0612    -1.7531 N.2     
  17 C17            8.2037     5.5294    -2.9202 C.2     
  18 N18            6.8820     5.2559    -2.9611 N.2     
  19 C19            6.4062     5.6433    -1.8032 C.2     
  20 N20            9.1264     5.2902    -3.9307 N.pl3   
  21 C21           10.4481     5.7309    -3.7906 C.ar    
  22 C22           11.4795     5.0445    -4.4182 C.ar    
  23 C23           12.7825     5.4800    -4.2799 C.ar    
  24 C24           13.0616     6.6025    -3.5139 C.ar    
  25 C25           12.0322     7.2881    -2.8864 C.ar    
  26 C26           10.7276     6.8575    -3.0287 C.ar    
  27 C27           13.9019     4.7354    -4.9609 C.3     
  28 O28           14.3452     7.0304    -3.3778 O.3     
  29 C29           14.5598     8.1927    -2.5747 C.3     
  30 F30           13.8593     9.2732    -3.1215 F       
  31 F31           14.1041     7.9516    -1.2741 F       
  32 H32           -1.0565     2.3531    -0.0251 H       
  33 H33            0.9394    -1.2779     0.3623 H       
  34 H34            3.0972    -0.1274     0.3110 H       
  35 H35            4.3388     2.0728     0.1387 H       
  36 H36            2.1787     5.7183    -0.2528 H       
  37 H37            0.0450     4.5065    -0.1931 H       
  38 H38            5.5219     4.2401     0.3954 H       
  39 H39            4.2264     5.5474    -2.1439 H       
  40 H40            3.6119     6.7008     0.0301 H       
  41 H41            5.3949     6.7718     0.4965 H       
  42 H42            8.8551     4.8180    -4.7334 H       
  43 H43           11.2626     4.1703    -5.0141 H       
  44 H44           12.2504     8.1614    -2.2896 H       
  45 H45            9.9256     7.3941    -2.5436 H       
  46 H46           14.0614     5.1502    -5.9562 H       
  47 H47           14.8151     4.8366    -4.3745 H       
  48 H48           13.6388     3.6810    -5.0446 H       
  49 H49           15.6244     8.4253    -2.5494 H       
@<TRIPOS>BOND
   1    1    2 am
   2    1   10 1
   3    1   32 1
   4    2    3 1
   5    2   11 2
   6    3    4 2
   7    3   33 1
   8    4    5 1
   9    4   34 1
  10    5    6 ar
  11    5   10 ar
  12    6    7 ar
  13    6   35 1
  14    7    8 ar
  15    7   12 1
  16    8    9 ar
  17    8   36 1
  18    9   10 ar
  19    9   37 1
  20   12   13 1
  21   12   14 1
  22   12   38 1
  23   13   14 1
  24   13   19 1
  25   13   39 1
  26   14   40 1
  27   14   41 1
  28   15   16 1
  29   15   19 1
  30   16   17 2
  31   17   18 1
  32   17   20 1
  33   18   19 2
  34   20   21 1
  35   20   42 1
  36   21   22 ar
  37   21   26 ar
  38   22   23 ar
  39   22   43 1
  40   23   24 ar
  41   23   27 1
  42   24   25 ar
  43   24   28 1
  44   25   26 ar
  45   25   44 1
  46   26   45 1
  47   27   46 1
  48   27   47 1
  49   27   48 1
  50   28   29 1
  51   29   30 1
  52   29   31 1
  53   29   49 1

#	End of record

