#	Name: ASD01840219
#	Creating user name:	WinNT
#	Creation time:	15. 06. 2019 19:37

#	Modifying user name:	WinNT
#	Modification time:	15. 06. 2019 19:37

#	Program:	/corina/corina34_cracker 3.40 0067  02.08.2006

@<TRIPOS>MOLECULE
ASD01840219
  44   47    0    0    0
SMALL
NO_CHARGES


@<TRIPOS>ATOM
   1 C1            -0.1661     1.0973     0.2346 C.ar    
   2 C2            -0.1063    -0.2725     0.1055 C.ar    
   3 N3             1.0640    -0.8868     0.0650 N.ar    
   4 N4             2.1770    -0.2579     0.1415 N.ar    
   5 C5             1.0516     1.8107     0.3207 C.ar    
   6 C6             2.6089     3.5677     0.5101 C.2     
   7 C7             1.2953     3.2346     0.4589 C.2     
   8 C8             2.2396     1.0699     0.2684 C.ar    
   9 S9             3.6254     2.1447     0.3913 S.3     
  10 N10            0.2743     4.1725     0.5324 N.pl3   
  11 C11            3.1112     4.9340     0.6468 C.2     
  12 N12            4.4387     5.1630     0.6883 N.am    
  13 O13            2.3302     5.8649     0.7232 O.2     
  14 C14            4.9419     6.5320     0.8253 C.3     
  15 C15           -1.4903     1.8153     0.2765 C.3     
  16 C16           -1.3789    -1.0742     0.0108 C.3     
  17 C17            6.4487     6.5137     0.8461 C.ar    
  18 C18            7.1562     6.6180    -0.3366 C.ar    
  19 C19            8.5384     6.5999    -0.3218 C.ar    
  20 C20            9.2187     6.4777     0.8803 C.ar    
  21 C21            7.1208     6.3981     2.0485 C.ar    
  22 C22            8.5071     6.3749     2.0700 C.ar    
  23 O23           10.5796     6.4576     0.8787 O.3     
  24 C24           11.2281     6.7104     2.1299 C.3     
  25 C25           10.5322     5.8710     3.2098 C.3     
  26 O26            9.1552     6.2649     3.2618 O.3     
  27 H27            0.4599     5.1068     0.3493 H       
  28 H28           -0.6246     3.8934     0.7667 H       
  29 H29            5.0609     4.4214     0.6274 H       
  30 H30            4.5975     7.1318    -0.0172 H       
  31 H31            4.5710     6.9642     1.7547 H       
  32 H32           -1.7782     1.9865     1.3137 H       
  33 H33           -1.4014     2.7719    -0.2385 H       
  34 H34           -2.2492     1.2069    -0.2156 H       
  35 H35           -1.6706    -1.1704    -1.0350 H       
  36 H36           -1.2167    -2.0649     0.4354 H       
  37 H37           -2.1698    -0.5670     0.5634 H       
  38 H38            6.6284     6.7135    -1.2740 H       
  39 H39            9.0889     6.6806    -1.2474 H       
  40 H40            6.5656     6.3213     2.9717 H       
  41 H41           12.2784     6.4264     2.0636 H       
  42 H42           11.1479     7.7687     2.3784 H       
  43 H43           10.6066     4.8131     2.9578 H       
  44 H44           11.0019     6.0531     4.1764 H       
@<TRIPOS>BOND
   1    1    2 ar
   2    1    5 ar
   3    1   15 1
   4    2    3 ar
   5    2   16 1
   6    3    4 ar
   7    4    8 ar
   8    5    8 ar
   9    5    7 1
  10    6    7 2
  11    6    9 1
  12    6   11 1
  13    7   10 1
  14    8    9 1
  15   10   27 1
  16   10   28 1
  17   11   12 am
  18   11   13 2
  19   12   14 1
  20   12   29 1
  21   14   17 1
  22   14   30 1
  23   14   31 1
  24   15   32 1
  25   15   33 1
  26   15   34 1
  27   16   35 1
  28   16   36 1
  29   16   37 1
  30   17   18 ar
  31   17   21 ar
  32   18   19 ar
  33   18   38 1
  34   19   20 ar
  35   19   39 1
  36   20   23 1
  37   20   22 ar
  38   21   22 ar
  39   21   40 1
  40   22   26 1
  41   23   24 1
  42   24   25 1
  43   24   41 1
  44   24   42 1
  45   25   26 1
  46   25   43 1
  47   25   44 1

#	End of record

