#	Name: ASD00310004
#	Creating user name:	WinNT
#	Creation time:	15. 06. 2019 18:33

#	Modifying user name:	WinNT
#	Modification time:	15. 06. 2019 18:33

#	Program:	/corina/corina34_cracker 3.40 0067  02.08.2006

@<TRIPOS>MOLECULE
ASD00310004
  56   59    0    0    0
SMALL
NO_CHARGES


@<TRIPOS>ATOM
   1 P1            -0.0201     1.6277     0.0110 P.3     
   2 O2             3.3231    -1.0289     0.7403 O.3     
   3 O3             0.0021    -0.0041     0.0020 O.3     
   4 O4             0.6363    -2.4955    -0.7785 O.3     
   5 O5             1.5271     2.1191    -0.0011 O.3     
   6 O6            -0.7812     2.1747    -1.2980 O.3     
   7 O7            -0.6966     2.1175     1.2328 O.2     
   8 O8             0.1738    -4.4995     0.0301 O.2     
   9 O9             3.9609    -9.0205     3.5396 O.2     
  10 N10            3.1116    -3.2426     1.6034 N.pl3   
  11 N11            3.7782    -3.9457     3.5596 N.2     
  12 N12            2.8691    -5.5142     0.6021 N.ar    
  13 N13            3.3983    -7.2585     2.0234 N.ar    
  14 N14            4.1154    -6.9244     4.2495 N.am    
  15 C15            1.0253    -0.6352     0.7776 C.3     
  16 C16            1.1920    -2.1374     0.5143 C.3     
  17 C17            2.3755    -0.0904     0.2376 C.3     
  18 C18            2.7291    -2.3320     0.5214 C.3     
  19 C19            2.5422     1.3481     0.6856 C.3     
  20 C20            3.1418    -4.6128     1.5387 C.ar    
  21 C21            3.5084    -2.8838     2.8570 C.2     
  22 C22            3.5723    -5.0508     2.8039 C.ar    
  23 C23            0.1427    -3.7371    -0.9068 C.2     
  24 C24           -0.4504    -4.1803    -2.2194 C.3     
  25 C25            3.6944    -6.4325     3.0207 C.ar    
  26 C26           -0.9359    -5.6260    -2.0975 C.3     
  27 C27            2.9989    -6.8005     0.8513 C.ar    
  28 C28           -1.5380    -6.0759    -3.4301 C.3     
  29 C29            4.2276    -8.2539     4.4405 C.2     
  30 C30            4.6844    -8.7876     5.7738 C.3     
  31 C31            4.7252   -10.3162     5.7243 C.3     
  32 C32            5.1890   -10.8581     7.0779 C.3     
  33 H33           -0.8281     3.1391    -1.3515 H       
  34 H34            4.3287    -6.3112     4.9701 H       
  35 H35            0.8951    -0.4325     1.8407 H       
  36 H36            0.7243    -2.7210     1.3074 H       
  37 H37            2.3720    -0.1236    -0.8519 H       
  38 H38            3.0568    -2.7329    -0.4377 H       
  39 H39            3.5335     1.7108     0.4135 H       
  40 H40            2.4002     1.4216     1.7638 H       
  41 H41            3.5877    -1.8679     3.2147 H       
  42 H42           -1.2910    -3.5350    -2.4746 H       
  43 H43            0.3071    -4.1160    -3.0005 H       
  44 H44           -0.0953    -6.2713    -1.8423 H       
  45 H45           -1.6934    -5.6903    -1.3164 H       
  46 H46            2.7687    -7.5074     0.0679 H       
  47 H47           -2.3786    -5.4307    -3.6853 H       
  48 H48           -0.7805    -6.0117    -4.2112 H       
  49 H49           -1.8839    -7.1059    -3.3432 H       
  50 H50            5.6803    -8.4046     5.9965 H       
  51 H51            3.9899    -8.4676     6.5505 H       
  52 H52            3.7293   -10.6992     5.5015 H       
  53 H53            5.4197   -10.6362     4.9475 H       
  54 H54            6.1849   -10.4751     7.3007 H       
  55 H55            4.4945   -10.5381     7.8546 H       
  56 H56            5.2180   -11.9472     7.0426 H       
@<TRIPOS>BOND
   1    1    3 1
   2    1    5 1
   3    1    6 1
   4    1    7 2
   5    2   18 1
   6    2   17 1
   7    3   15 1
   8    4   23 1
   9    4   16 1
  10    5   19 1
  11    6   33 1
  12    8   23 2
  13    9   29 2
  14   10   20 1
  15   10   21 1
  16   10   18 1
  17   11   21 2
  18   11   22 1
  19   12   20 ar
  20   12   27 ar
  21   13   25 ar
  22   13   27 ar
  23   14   25 1
  24   14   29 am
  25   14   34 1
  26   15   16 1
  27   15   17 1
  28   15   35 1
  29   16   18 1
  30   16   36 1
  31   17   19 1
  32   17   37 1
  33   18   38 1
  34   19   39 1
  35   19   40 1
  36   20   22 ar
  37   21   41 1
  38   22   25 ar
  39   23   24 1
  40   24   26 1
  41   24   42 1
  42   24   43 1
  43   26   28 1
  44   26   44 1
  45   26   45 1
  46   27   46 1
  47   28   47 1
  48   28   48 1
  49   28   49 1
  50   29   30 1
  51   30   31 1
  52   30   50 1
  53   30   51 1
  54   31   32 1
  55   31   52 1
  56   31   53 1
  57   32   54 1
  58   32   55 1
  59   32   56 1

#	End of record

