#	Name: ASD06170137
#	Creating user name:	WinNT
#	Creation time:	15. 06. 2019 21:05

#	Modifying user name:	WinNT
#	Modification time:	15. 06. 2019 21:05

#	Program:	/corina/corina34_cracker 3.40 0067  02.08.2006

@<TRIPOS>MOLECULE
ASD06170137
  63   67    0    0    0
SMALL
NO_CHARGES


@<TRIPOS>ATOM
   1 N1            -0.0858     1.1049     0.0402 N.pl3   
   2 N2             0.3439    -0.2252     0.0120 N.am    
   3 C3             1.6924    -0.2419     0.0545 C.2     
   4 C4             2.1263     1.1629     0.1128 C.2     
   5 C5             0.9773     1.9293     0.1003 C.2     
   6 C6             3.5085     1.6534     0.1729 C.2     
   7 O7             3.7284     2.8494     0.2181 O.2     
   8 N8             4.5342     0.7790     0.1780 N.am    
   9 C9            -0.4851    -1.3500    -0.0494 C.ar    
  10 C10           -1.4748    -1.4329    -1.0202 C.ar    
  11 C11           -2.2915    -2.5452    -1.0783 C.ar    
  12 C12           -2.1249    -3.5753    -0.1710 C.ar    
  13 C13           -1.1407    -3.4956     0.7971 C.ar    
  14 C14           -0.3167    -2.3889     0.8568 C.ar    
  15 O15            2.4089    -1.2255     0.0464 O.2     
  16 C16            0.9226     3.4346     0.1453 C.3     
  17 C17           -1.4849     1.5378     0.0036 C.3     
  18 C18           -2.0369     1.6004     1.4292 C.3     
  19 C19           -1.2161     2.5966     2.2506 C.3     
  20 C20           -3.4980     2.0525     1.3910 C.3     
  21 O21           -1.9543     0.3061     2.0292 O.3     
  22 C22            5.8533     1.2469     0.1328 C.ar    
  23 C23            6.1953     2.4245     0.7848 C.ar    
  24 C24            7.4977     2.8852     0.7399 C.ar    
  25 C25            8.4637     2.1697     0.0425 C.ar    
  26 C26            8.1211     0.9943    -0.6080 C.ar    
  27 C27            6.8206     0.5306    -0.5591 C.ar    
  28 O28            9.7452     2.6229    -0.0023 O.3     
  29 C29           10.9124     1.3302     3.0868 C.ar    
  30 N30           12.1925     1.6332     3.0973 N.ar    
  31 C31           12.7443     2.2859     2.0765 C.ar    
  32 C32           11.9276     2.6443     0.9867 C.ar    
  33 C33           10.5702     2.2995     1.0219 C.ar    
  34 N34           10.1122     1.6478     2.0850 N.ar    
  35 N35           14.0069     2.7323     1.7980 N.pl3   
  36 C36           12.7964     3.3376     0.0372 C.2     
  37 C37           14.0253     3.3581     0.5785 C.2     
  38 F38            7.8315     4.0308     1.3735 F       
  39 H39            4.3587    -0.1743     0.2131 H       
  40 H40           -1.6059    -0.6284    -1.7286 H       
  41 H41           -3.0613    -2.6103    -1.8330 H       
  42 H42           -2.7650    -4.4439    -0.2183 H       
  43 H43           -1.0136    -4.3016     1.5048 H       
  44 H44            0.4549    -2.3294     1.6102 H       
  45 H45            0.8762     3.7657     1.1828 H       
  46 H46            1.8150     3.8449    -0.3274 H       
  47 H47            0.0371     3.7821    -0.3869 H       
  48 H48           -1.5479     2.5250    -0.4541 H       
  49 H49           -2.0696     0.8280    -0.5816 H       
  50 H50           -1.2791     3.5839     1.7930 H       
  51 H51           -1.6093     2.6412     3.2662 H       
  52 H52           -0.1751     2.2745     2.2779 H       
  53 H53           -4.0828     1.3427     0.8058 H       
  54 H54           -3.8913     2.0970     2.4066 H       
  55 H55           -3.5610     3.0397     0.9333 H       
  56 H56           -2.4522    -0.3774     1.5602 H       
  57 H57            5.4440     2.9802     1.3263 H       
  58 H58            8.8721     0.4389    -1.1501 H       
  59 H59            6.5556    -0.3874    -1.0624 H       
  60 H60           10.4997     0.7962     3.9299 H       
  61 H61           14.7762     2.6225     2.3785 H       
  62 H62           12.5058     3.7536    -0.9162 H       
  63 H63           14.8976     3.8014     0.1214 H       
@<TRIPOS>BOND
   1    1    2 1
   2    1    5 1
   3    1   17 1
   4    2    3 am
   5    2    9 1
   6    3    4 1
   7    3   15 2
   8    4    5 2
   9    4    6 1
  10    5   16 1
  11    6    7 2
  12    6    8 am
  13    8   22 1
  14    8   39 1
  15    9   10 ar
  16    9   14 ar
  17   10   11 ar
  18   10   40 1
  19   11   12 ar
  20   11   41 1
  21   12   13 ar
  22   12   42 1
  23   13   14 ar
  24   13   43 1
  25   14   44 1
  26   16   45 1
  27   16   46 1
  28   16   47 1
  29   17   18 1
  30   17   48 1
  31   17   49 1
  32   18   19 1
  33   18   20 1
  34   18   21 1
  35   19   50 1
  36   19   51 1
  37   19   52 1
  38   20   53 1
  39   20   54 1
  40   20   55 1
  41   21   56 1
  42   22   23 ar
  43   22   27 ar
  44   23   24 ar
  45   23   57 1
  46   24   25 ar
  47   24   38 1
  48   25   26 ar
  49   25   28 1
  50   26   27 ar
  51   26   58 1
  52   27   59 1
  53   28   33 1
  54   29   30 ar
  55   29   34 ar
  56   29   60 1
  57   30   31 ar
  58   31   32 ar
  59   31   35 1
  60   32   33 ar
  61   32   36 1
  62   33   34 ar
  63   35   37 1
  64   35   61 1
  65   36   37 2
  66   36   62 1
  67   37   63 1

#	End of record

