#	Name: ASD03331468
#	Creating user name:	WinNT
#	Creation time:	15. 06. 2019 20:39

#	Modifying user name:	WinNT
#	Modification time:	15. 06. 2019 20:39

#	Program:	/corina/corina34_cracker 3.40 0067  02.08.2006

@<TRIPOS>MOLECULE
ASD03331468
  60   62    0    0    0
SMALL
NO_CHARGES


@<TRIPOS>ATOM
   1 C1            -0.0958     1.1697     0.6117 C.ar    
   2 C2            -0.0813    -0.2980     0.4325 C.2     
   3 N3            -1.1657    -1.1149     0.4875 N.pl3   
   4 C4            -0.7292    -2.3907     0.2749 C.2     
   5 C5             0.6125    -2.3294     0.0904 C.2     
   6 N6             0.9821    -1.0311     0.1875 N.2     
   7 C7             1.5067    -3.4705    -0.1734 C.2     
   8 N8             2.8287    -3.2666    -0.3380 N.am    
   9 C9             0.5877     1.9925    -0.2872 C.ar    
  10 O10            1.0517    -4.5963    -0.2427 O.2     
  11 C11            3.7178    -4.4010    -0.6004 C.3     
  12 C12            3.7270    -4.7057    -2.0997 C.3     
  13 C13            5.1143    -4.0598    -0.1484 C.2     
  14 C14            4.1132    -3.4439    -2.8741 C.3     
  15 C15           -2.5707    -0.7707     0.7227 C.3     
  16 C16           -3.4347    -1.9590     0.2808 C.3     
  17 N17           -2.9195    -3.1992     0.8776 N.3     
  18 C18           -1.6376    -3.5929     0.2655 C.3     
  19 O19            5.4827    -2.9043    -0.1373 O.2     
  20 N20            5.9539    -5.0386     0.2433 N.am    
  21 C21            7.2713    -4.6996     0.7872 C.3     
  22 C22            4.7429    -5.8125    -2.3890 C.3     
  23 C23            2.3342    -5.1652    -2.5354 C.3     
  24 C24            0.5704     3.3638    -0.1152 C.ar    
  25 C25           -0.1225     3.9222     0.9454 C.ar    
  26 C26           -0.8029     3.1090     1.8417 C.ar    
  27 C27           -0.7970     1.7385     1.6760 C.ar    
  28 F28           -0.1362     5.2632     1.1091 F       
  29 F29           -1.4763     3.6603     2.8750 F       
  30 F30            1.2646     1.4488    -1.3223 F       
  31 C31           -3.9066    -4.2823     0.7751 C.3     
  32 C32           -4.8778    -1.7360     0.7377 C.3     
  33 H33            3.1916    -2.3687    -0.2828 H       
  34 H34            3.3625    -5.2749    -0.0542 H       
  35 H35            5.1055    -3.1165    -2.5637 H       
  36 H36            4.1198    -3.6609    -3.9422 H       
  37 H37            3.3895    -2.6553    -2.6680 H       
  38 H38           -2.7290    -0.5751     1.7833 H       
  39 H39           -2.8352     0.1127     0.1416 H       
  40 H40           -3.4086    -2.0417    -0.8058 H       
  41 H41           -1.8044    -3.9207    -0.7606 H       
  42 H42           -1.1864    -4.4003     0.8422 H       
  43 H43            5.6859    -5.9676     0.1652 H       
  44 H44            7.8414    -4.1469     0.0405 H       
  45 H45            7.1489    -4.0849     1.6791 H       
  46 H46            7.8036    -5.6146     1.0468 H       
  47 H47            4.4374    -6.7277    -1.8818 H       
  48 H48            4.7900    -5.9908    -3.4632 H       
  49 H49            5.7251    -5.5076    -2.0279 H       
  50 H50            1.6105    -4.3766    -2.3293 H       
  51 H51            2.3408    -5.3822    -3.6035 H       
  52 H52            2.0591    -6.0641    -1.9837 H       
  53 H53            1.0987     4.0008    -0.8091 H       
  54 H54           -1.3269     1.1069     2.3737 H       
  55 H55           -4.1346    -4.4680    -0.2745 H       
  56 H56           -3.4997    -5.1883     1.2243 H       
  57 H57           -4.8177    -3.9944     1.2995 H       
  58 H58           -5.2631    -0.8197     0.2904 H       
  59 H59           -5.4926    -2.5798     0.4242 H       
  60 H60           -4.9058    -1.6498     1.8239 H       
@<TRIPOS>BOND
   1    1    2 1
   2    1    9 ar
   3    1   27 ar
   4    2    3 1
   5    2    6 2
   6    3    4 1
   7    3   15 1
   8    4    5 2
   9    4   18 1
  10    5    6 1
  11    5    7 1
  12    7    8 am
  13    7   10 2
  14    8   11 1
  15    8   33 1
  16    9   24 ar
  17    9   30 1
  18   11   12 1
  19   11   13 1
  20   11   34 1
  21   12   14 1
  22   12   22 1
  23   12   23 1
  24   13   19 2
  25   13   20 am
  26   14   35 1
  27   14   36 1
  28   14   37 1
  29   15   16 1
  30   15   38 1
  31   15   39 1
  32   16   17 1
  33   16   32 1
  34   16   40 1
  35   17   18 1
  36   17   31 1
  37   18   41 1
  38   18   42 1
  39   20   21 1
  40   20   43 1
  41   21   44 1
  42   21   45 1
  43   21   46 1
  44   22   47 1
  45   22   48 1
  46   22   49 1
  47   23   50 1
  48   23   51 1
  49   23   52 1
  50   24   25 ar
  51   24   53 1
  52   25   26 ar
  53   25   28 1
  54   26   27 ar
  55   26   29 1
  56   27   54 1
  57   31   55 1
  58   31   56 1
  59   31   57 1
  60   32   58 1
  61   32   59 1
  62   32   60 1

#	End of record

