#	Name: ASD01890034
#	Creating user name:	WinNT
#	Creation time:	15. 06. 2019 19:50

#	Modifying user name:	WinNT
#	Modification time:	15. 06. 2019 19:50

#	Program:	/corina/corina34_cracker 3.40 0067  02.08.2006

@<TRIPOS>MOLECULE
ASD01890034
  36   38    0    0    0
SMALL
NO_CHARGES


@<TRIPOS>ATOM
   1 C1            -0.6161    -0.3037    -1.3633 C.2     
   2 C2             0.0487     0.0773    -0.0656 C.3     
   3 C3             1.4146    -0.6057     0.0274 C.3     
   4 C4             2.1534    -0.1015     1.2687 C.3     
   5 O5            -0.0142    -0.9586    -2.1810 O.2     
   6 O6            -1.8789     0.0797    -1.6083 O.3     
   7 C7             1.2246    -2.0974     0.1272 C.ar    
   8 C8             1.7647    -2.9287    -0.8362 C.ar    
   9 C9             1.5907    -4.2968    -0.7452 C.ar    
  10 C10            0.8759    -4.8343     0.3104 C.ar    
  11 C11            0.3356    -4.0018     1.2743 C.ar    
  12 C12            0.5150    -2.6342     1.1852 C.ar    
  13 Cl13           0.6565    -6.5525     0.4250 Cl      
  14 O14            3.5394     1.8532     0.4670 O.3     
  15 C15            2.4657     1.3639     1.1068 C.2     
  16 N16            1.7339     2.3339     1.5662 N.2     
  17 C17            2.3169     3.5179     1.2351 C.ar    
  18 C18            3.4850     3.2023     0.5240 C.ar    
  19 C19            1.9842     4.8544     1.4592 C.ar    
  20 C20            2.8052     5.8526     0.9803 C.ar    
  21 C21            3.9592     5.5357     0.2776 C.ar    
  22 C22            4.2999     4.2186     0.0499 C.ar    
  23 Cl23           2.3930     7.5160     1.2574 Cl      
  24 H24            0.1800     1.1587    -0.0285 H       
  25 H25           -0.5748    -0.2419     0.7695 H       
  26 H26            1.9988    -0.3726    -0.8628 H       
  27 H27            1.5256    -0.2443     2.1482 H       
  28 H28            3.0818    -0.6595     1.3906 H       
  29 H29           -2.2629    -0.1885    -2.4543 H       
  30 H30            2.3224    -2.5090    -1.6604 H       
  31 H31            2.0125    -4.9462    -1.4981 H       
  32 H32           -0.2226    -4.4207     2.0985 H       
  33 H33            0.0970    -1.9846     1.9400 H       
  34 H34            1.0869     5.1057     2.0053 H       
  35 H35            4.5953     6.3259    -0.0931 H       
  36 H36            5.1997     3.9795    -0.4975 H       
@<TRIPOS>BOND
   1    1    2 1
   2    1    5 2
   3    1    6 1
   4    2    3 1
   5    2   24 1
   6    2   25 1
   7    3    4 1
   8    3    7 1
   9    3   26 1
  10    4   15 1
  11    4   27 1
  12    4   28 1
  13    6   29 1
  14    7    8 ar
  15    7   12 ar
  16    8    9 ar
  17    8   30 1
  18    9   10 ar
  19    9   31 1
  20   10   11 ar
  21   10   13 1
  22   11   12 ar
  23   11   32 1
  24   12   33 1
  25   14   15 1
  26   14   18 1
  27   15   16 2
  28   16   17 1
  29   17   18 ar
  30   17   19 ar
  31   18   22 ar
  32   19   20 ar
  33   19   34 1
  34   20   21 ar
  35   20   23 1
  36   21   22 ar
  37   21   35 1
  38   22   36 1

#	End of record

