#	Name: ASD03930207
#	Creating user name:	WinNT
#	Creation time:	15. 06. 2019 20:47

#	Modifying user name:	WinNT
#	Modification time:	15. 06. 2019 20:47

#	Program:	/corina/corina34_cracker 3.40 0067  02.08.2006

@<TRIPOS>MOLECULE
ASD03930207
  49   51    0    0    0
SMALL
NO_CHARGES


@<TRIPOS>ATOM
   1 S1            -0.0775     4.0234    -0.9958 S.o2    
   2 N2            -0.7568     2.5391    -1.3320 N.am    
   3 C3            -0.4954     1.9088    -2.6223 C.3     
   4 C4             0.9728     1.5713    -2.8331 C.3     
   5 O5             1.7773     2.7560    -2.8725 O.3     
   6 C6             2.3627     3.1103    -1.7005 C.ar    
   7 C7             1.6330     3.6774    -0.6647 C.ar    
   8 C8             3.7223     2.8874    -1.5121 C.ar    
   9 C9             4.3090     3.1884    -0.2991 C.ar    
  10 C10            3.5558     3.7134     0.7407 C.ar    
  11 C11            2.2004     3.9643     0.5488 C.ar    
  12 C12           -1.5393     1.9267    -0.4214 C.2     
  13 O13           -2.0315     0.8446    -0.6728 O.2     
  14 O14           -1.7756     2.5140     0.7669 O.3     
  15 O15            4.1381     3.9813     1.9398 O.3     
  16 C16            3.3391     4.3923     2.9593 C.ar    
  17 C17            3.1159     5.7442     3.1620 C.ar    
  18 C18            2.2945     6.1616     4.2098 C.ar    
  19 C19            1.7029     5.2130     5.0469 C.ar    
  20 C20            1.9321     3.8691     4.8357 C.ar    
  21 C21            2.7423     3.4567     3.7937 C.ar    
  22 C22            2.0592     7.5575     4.4262 C.1     
  23 N23            1.8726     8.6648     4.5980 N.1     
  24 O24           -0.1177     4.7750    -2.2012 O.2     
  25 O25           -0.6496     4.4688     0.2263 O.2     
  26 C26           -2.6275     1.7969     1.6988 C.3     
  27 C27           -1.9967     0.4424     2.0278 C.3     
  28 C28           -2.7797     2.6142     2.9832 C.3     
  29 C29           -4.0039     1.5786     1.0672 C.3     
  30 H30           -1.0795     0.9909    -2.6891 H       
  31 H31           -0.8171     2.5849    -3.4144 H       
  32 H32            1.3138     0.9350    -2.0164 H       
  33 H33            1.0838     1.0328    -3.7743 H       
  34 H34            4.3190     2.4787    -2.3142 H       
  35 H35            5.3653     3.0129    -0.1582 H       
  36 H36            1.6031     4.3800     1.3468 H       
  37 H37            3.5766     6.4729     2.5114 H       
  38 H38            1.0666     5.5314     5.8594 H       
  39 H39            1.4741     3.1366     5.4838 H       
  40 H40            2.9144     2.4031     3.6305 H       
  41 H41           -1.0162     0.5979     2.4778 H       
  42 H42           -2.6363    -0.0959     2.7274 H       
  43 H43           -1.8884    -0.1399     1.1128 H       
  44 H44           -3.2291     3.5792     2.7488 H       
  45 H45           -3.4192     2.0759     3.6828 H       
  46 H46           -1.7991     2.7697     3.4332 H       
  47 H47           -3.8955     0.9963     0.1521 H       
  48 H48           -4.6434     1.0403     1.7667 H       
  49 H49           -4.4533     2.5435     0.8327 H       
@<TRIPOS>BOND
   1    1    2 am
   2    1    7 1
   3    1   24 2
   4    1   25 2
   5    2    3 1
   6    2   12 am
   7    3    4 1
   8    3   30 1
   9    3   31 1
  10    4    5 1
  11    4   32 1
  12    4   33 1
  13    5    6 1
  14    6    7 ar
  15    6    8 ar
  16    7   11 ar
  17    8    9 ar
  18    8   34 1
  19    9   10 ar
  20    9   35 1
  21   10   11 ar
  22   10   15 1
  23   11   36 1
  24   12   13 2
  25   12   14 1
  26   14   26 1
  27   15   16 1
  28   16   17 ar
  29   16   21 ar
  30   17   18 ar
  31   17   37 1
  32   18   19 ar
  33   18   22 1
  34   19   20 ar
  35   19   38 1
  36   20   21 ar
  37   20   39 1
  38   21   40 1
  39   22   23 3
  40   26   27 1
  41   26   29 1
  42   26   28 1
  43   27   41 1
  44   27   42 1
  45   27   43 1
  46   28   44 1
  47   28   45 1
  48   28   46 1
  49   29   47 1
  50   29   48 1
  51   29   49 1

#	End of record

