#	Name: ASD01816068
#	Creating user name:	WinNT
#	Creation time:	15. 06. 2019 19:34

#	Modifying user name:	WinNT
#	Modification time:	15. 06. 2019 19:34

#	Program:	/corina/corina34_cracker 3.40 0067  02.08.2006

@<TRIPOS>MOLECULE
ASD01816068
  63   68    0    0    0
SMALL
NO_CHARGES


@<TRIPOS>ATOM
   1 C1            -0.0167     1.3813     0.0096 C.ar    
   2 C2             0.0021    -0.0041     0.0020 C.ar    
   3 C3             1.1984    -0.6909    -0.0127 C.ar    
   4 C4             2.4015     0.0059    -0.0200 C.ar    
   5 C5             2.3790     1.4106    -0.0127 C.ar    
   6 C6             1.1663     2.0916     0.0022 C.ar    
   7 N7             3.6053    -0.6772    -0.0338 N.pl3   
   8 C8             4.7970    -0.0586    -0.0409 C.2     
   9 C9             4.9000     1.3103    -0.0349 C.2     
  10 C10            3.6670     2.1301    -0.0207 C.2     
  11 C11            5.9971     2.2729    -0.0391 C.2     
  12 N12            5.4246     3.4960    -0.0282 N.am    
  13 N13            4.0323     3.3799    -0.0174 N.2     
  14 O14            7.1915     2.0229    -0.0495 O.2     
  15 C15            3.5779    -2.1419    -0.0404 C.3     
  16 C16            3.5560    -2.6375    -1.4634 C.ar    
  17 C17            4.7314    -2.6897    -2.1944 C.ar    
  18 C18            4.7155    -3.1443    -3.5002 C.ar    
  19 C19            3.5153    -3.5494    -4.0786 C.ar    
  20 C20            2.3366    -3.4944    -3.3378 C.ar    
  21 C21            2.3634    -3.0441    -2.0334 C.ar    
  22 F22            5.8945    -2.2957    -1.6312 F       
  23 C23            6.1265     4.7081    -0.0278 C.ar    
  24 C24            5.8865     5.6523     0.9648 C.ar    
  25 C25            7.0677     4.9677    -1.0150 C.ar    
  26 C26            7.7583     6.1639    -1.0120 C.ar    
  27 C27            7.5140     7.1037    -0.0273 C.ar    
  28 C28            6.5819     6.8478     0.9614 C.ar    
  29 F29            4.9754     5.4022     1.9305 F       
  30 C30            3.4918    -4.0379    -5.4805 C.2     
  31 C31            4.6002    -4.1469    -6.3426 C.2     
  32 N32            4.1793    -4.6150    -7.4877 N.2     
  33 N33            2.7971    -4.8217    -7.4029 N.pl3   
  34 C34            2.3935    -4.4685    -6.1659 C.2     
  35 C35            1.9386    -5.3381    -8.4717 C.3     
  36 C36            2.1093    -4.4761    -9.7243 C.3     
  37 C37            3.5393    -4.6175   -10.2497 C.3     
  38 C38            1.1231    -4.9375   -10.7992 C.3     
  39 H39           -0.9602     1.9068     0.0170 H       
  40 H40           -0.9289    -0.5515     0.0080 H       
  41 H41            1.2004    -1.7709    -0.0181 H       
  42 H42            1.1506     3.1715     0.0077 H       
  43 H43            5.6983    -0.6536    -0.0513 H       
  44 H44            4.4654    -2.5242     0.4639 H       
  45 H45            2.6859    -2.4910     0.4797 H       
  46 H46            5.6318    -3.1847    -4.0704 H       
  47 H47            1.4036    -3.8076    -3.7825 H       
  48 H48            1.4496    -3.0015    -1.4592 H       
  49 H49            7.2599     4.2346    -1.7845 H       
  50 H50            8.4906     6.3655    -1.7798 H       
  51 H51            8.0560     8.0378    -0.0278 H       
  52 H52            6.3934     7.5839     1.7289 H       
  53 H53            5.6202    -3.8882    -6.0998 H       
  54 H54            1.3826    -4.5120    -5.7882 H       
  55 H55            2.2189    -6.3669    -8.6977 H       
  56 H56            0.8980    -5.3075    -8.1487 H       
  57 H57            1.9148    -3.4326    -9.4765 H       
  58 H58            3.6609    -4.0035   -11.1420 H       
  59 H59            4.2419    -4.2889    -9.4839 H       
  60 H60            3.7338    -5.6610   -10.4975 H       
  61 H61            0.1043    -4.8367   -10.4248 H       
  62 H62            1.2447    -4.3234   -11.6915 H       
  63 H63            1.3176    -5.9810   -11.0469 H       
@<TRIPOS>BOND
   1    1    2 ar
   2    1    6 ar
   3    1   39 1
   4    2    3 ar
   5    2   40 1
   6    3    4 ar
   7    3   41 1
   8    4    5 ar
   9    4    7 1
  10    5    6 ar
  11    5   10 1
  12    6   42 1
  13    7    8 1
  14    7   15 1
  15    8    9 2
  16    8   43 1
  17    9   10 1
  18    9   11 1
  19   10   13 2
  20   11   12 am
  21   11   14 2
  22   12   13 1
  23   12   23 1
  24   15   16 1
  25   15   44 1
  26   15   45 1
  27   16   17 ar
  28   16   21 ar
  29   17   18 ar
  30   17   22 1
  31   18   19 ar
  32   18   46 1
  33   19   20 ar
  34   19   30 1
  35   20   21 ar
  36   20   47 1
  37   21   48 1
  38   23   24 ar
  39   23   25 ar
  40   24   29 1
  41   24   28 ar
  42   25   26 ar
  43   25   49 1
  44   26   27 ar
  45   26   50 1
  46   27   28 ar
  47   27   51 1
  48   28   52 1
  49   30   31 1
  50   30   34 2
  51   31   32 2
  52   31   53 1
  53   32   33 1
  54   33   34 1
  55   33   35 1
  56   34   54 1
  57   35   36 1
  58   35   55 1
  59   35   56 1
  60   36   37 1
  61   36   38 1
  62   36   57 1
  63   37   58 1
  64   37   59 1
  65   37   60 1
  66   38   61 1
  67   38   62 1
  68   38   63 1

#	End of record

