#	Name: ASD01120003
#	Creating user name:	WinNT
#	Creation time:	15. 06. 2019 18:58

#	Modifying user name:	WinNT
#	Modification time:	15. 06. 2019 18:58

#	Program:	/corina/corina34_cracker 3.40 0067  02.08.2006

@<TRIPOS>MOLECULE
ASD01120003
  58   61    0    0    0
SMALL
NO_CHARGES


@<TRIPOS>ATOM
   1 C1            -8.4677     6.9539     3.9603 C.ar    
   2 C2            -9.5873     6.3213     4.4710 C.ar    
   3 C3            -9.9014     5.0389     4.0712 C.ar    
   4 C4            -9.0865     4.3793     3.1491 C.ar    
   5 C5            -7.9583     5.0235     2.6379 C.ar    
   6 C6            -7.6588     6.3079     3.0422 C.ar    
   7 C7            -9.4164     3.0056     2.7168 C.2     
   8 N8           -10.4423     2.2896     3.1177 N.2     
   9 N9           -10.4167     1.1428     2.5350 N.2     
  10 C10           -9.3734     1.0812     1.7389 C.2     
  11 O11           -8.7229     2.2587     1.8337 O.3     
  12 C12           -8.9866    -0.0658     0.8916 C.ar    
  13 C13           -9.7605    -1.2263     0.8888 C.ar    
  14 C14           -9.3915    -2.2979     0.0908 C.ar    
  15 C15           -8.2539    -2.2140    -0.7030 C.ar    
  16 C16           -7.4866    -1.0638    -0.7004 C.ar    
  17 C17           -7.8481     0.0105     0.0862 C.ar    
  18 N18          -10.1643    -3.4647     0.0848 N.am    
  19 C19          -11.5047    -3.3857     0.2006 C.2     
  20 C20          -12.3454    -4.6314     0.0890 C.3     
  21 O21          -12.0344    -2.3120     0.3948 O.2     
  22 C22          -13.8219    -4.2670     0.2561 C.3     
  23 C23          -14.6754    -5.5317     0.1427 C.3     
  24 N24          -16.0931    -5.1818     0.3032 N.3     
  25 C25          -16.9574    -6.3204    -0.0326 C.3     
  26 C26          -16.4372    -3.9997    -0.4972 C.3     
  27 C27          -17.8770    -3.5786    -0.1945 C.3     
  28 C28          -18.8227    -4.7360    -0.5268 C.3     
  29 C29          -18.4128    -5.9686     0.2840 C.3     
  30 C30           -8.1312     8.3551     4.4013 C.3     
  31 H31          -10.2166     6.8326     5.1844 H       
  32 H32          -10.7754     4.5462     4.4708 H       
  33 H33           -7.3238     4.5189     1.9243 H       
  34 H34           -6.7863     6.8074     2.6475 H       
  35 H35          -10.6441    -1.2898     1.5066 H       
  36 H36           -7.9679    -3.0503    -1.3237 H       
  37 H37           -6.6036    -1.0046    -1.3194 H       
  38 H38           -7.2462     0.9072     0.0855 H       
  39 H39           -9.7352    -4.3302    -0.0028 H       
  40 H40          -12.1920    -5.0867    -0.8894 H       
  41 H41          -12.0549    -5.3368     0.8675 H       
  42 H42          -13.9753    -3.8117     1.2345 H       
  43 H43          -14.1124    -3.5616    -0.5225 H       
  44 H44          -14.5220    -5.9870    -0.8357 H       
  45 H45          -14.3849    -6.2371     0.9213 H       
  46 H46          -16.8616    -6.5485    -1.0941 H       
  47 H47          -16.6580    -7.1891     0.5539 H       
  48 H48          -15.7599    -3.1828    -0.2483 H       
  49 H49          -16.3438    -4.2387    -1.5566 H       
  50 H50          -17.9679    -3.3262     0.8619 H       
  51 H51          -18.1373    -2.7106    -0.8004 H       
  52 H52          -19.8449    -4.4559    -0.2720 H       
  53 H53          -18.7608    -4.9630    -1.5911 H       
  54 H54          -19.0558    -6.8082     0.0201 H       
  55 H55          -18.5121    -5.7538     1.3480 H       
  56 H56           -7.4850     8.3147     5.2782 H       
  57 H57           -7.6164     8.8763     3.5942 H       
  58 H58           -9.0490     8.8878     4.6506 H       
@<TRIPOS>BOND
   1    1    2 ar
   2    1   30 1
   3    1    6 ar
   4    2    3 ar
   5    2   31 1
   6    3    4 ar
   7    3   32 1
   8    4    5 ar
   9    4    7 1
  10    5    6 ar
  11    5   33 1
  12    6   34 1
  13    7    8 2
  14    7   11 1
  15    8    9 1
  16    9   10 2
  17   10   11 1
  18   10   12 1
  19   12   13 ar
  20   12   17 ar
  21   13   14 ar
  22   13   35 1
  23   14   15 ar
  24   14   18 1
  25   15   16 ar
  26   15   36 1
  27   16   17 ar
  28   16   37 1
  29   17   38 1
  30   18   19 am
  31   18   39 1
  32   19   20 1
  33   19   21 2
  34   20   22 1
  35   20   40 1
  36   20   41 1
  37   22   23 1
  38   22   42 1
  39   22   43 1
  40   23   24 1
  41   23   44 1
  42   23   45 1
  43   24   25 1
  44   24   26 1
  45   25   29 1
  46   25   46 1
  47   25   47 1
  48   26   27 1
  49   26   48 1
  50   26   49 1
  51   27   28 1
  52   27   50 1
  53   27   51 1
  54   28   29 1
  55   28   52 1
  56   28   53 1
  57   29   54 1
  58   29   55 1
  59   30   56 1
  60   30   57 1
  61   30   58 1

#	End of record

