#	Name: ASD03720004
#	Creating user name:	WinNT
#	Creation time:	15. 06. 2019 20:43

#	Modifying user name:	WinNT
#	Modification time:	15. 06. 2019 20:43

#	Program:	/corina/corina34_cracker 3.40 0067  02.08.2006

@<TRIPOS>MOLECULE
ASD03720004
  77   79    0    0    0
SMALL
NO_CHARGES


@<TRIPOS>ATOM
   1 C1            -0.2153     1.8728     0.3370 C.3     
   2 C2            -0.0163     0.3447     0.1286 C.3     
   3 C3             1.1650     2.4594     0.3492 C.2     
   4 C4            -0.9837     1.8962     1.6603 C.3     
   5 C5            -1.3898    -0.2301     0.4385 C.3     
   6 C6             0.5499     0.1424    -1.2574 C.3     
   7 C7             1.6355     3.1563     1.3835 C.2     
   8 C8             1.9903     2.2019    -0.9034 C.3     
   9 C9            -2.0036     0.7356     1.4856 C.3     
  10 C10           -2.2509    -0.2603    -0.8258 C.3     
  11 C11            1.9762     0.7177    -1.2642 C.3     
  12 C12            2.9924     3.7061     1.3396 C.2     
  13 C13           -1.6525    -1.2505    -1.8269 C.3     
  14 C14            3.4686     4.4113     2.3864 C.2     
  15 C15           -1.4308    -2.5994    -1.1397 C.3     
  16 C16            2.6522     4.6507     3.5948 C.2     
  17 C17            4.8690     4.9911     2.3825 C.3     
  18 C18           -0.7282    -3.5549    -2.1063 C.3     
  19 C19            3.3483     4.4912     4.9317 C.3     
  20 C20            1.3661     4.9909     3.5129 C.2     
  21 C21            5.5307     4.6635     3.7249 C.3     
  22 C22            4.6906     5.2270     4.8677 C.3     
  23 O23            3.5715     3.1047     5.1958 O.3     
  24 O24            6.8355     5.2447     3.7657 O.3     
  25 C25            0.9922    -0.1756     1.1548 C.3     
  26 C26           -2.2892     1.1359    -1.4502 C.3     
  27 C27           -0.5065    -4.9037    -1.4191 C.3     
  28 O28            0.3054    -4.7189    -0.2577 O.3     
  29 C29           -2.6136    -1.4296    -3.0038 C.3     
  30 C30           -1.8566    -5.4950    -1.0087 C.3     
  31 C31            0.1961    -5.8592    -2.3857 C.3     
  32 H32           -0.8089     2.3016    -0.4704 H       
  33 H33           -0.3152     1.7000     2.4986 H       
  34 H34           -1.4996     2.8475     1.7906 H       
  35 H35           -1.2953    -1.2328     0.8555 H       
  36 H36            0.5789    -0.9213    -1.4936 H       
  37 H37           -0.0645     0.6680    -1.9884 H       
  38 H38            1.0162     3.3156     2.2538 H       
  39 H39            1.5751     2.7765    -1.7313 H       
  40 H40            3.0183     2.5187    -0.7274 H       
  41 H41           -2.1472     0.2175     2.4338 H       
  42 H42           -2.9551     1.1248     1.1233 H       
  43 H43           -3.2634    -0.5711    -0.5684 H       
  44 H44            2.5832     0.1709    -0.5426 H       
  45 H45            2.4062     0.5895    -2.2576 H       
  46 H46            3.6117     3.5468     0.4693 H       
  47 H47           -0.6993    -0.8674    -2.1914 H       
  48 H48           -0.8115    -2.4584    -0.2539 H       
  49 H49           -2.3926    -3.0206    -0.8473 H       
  50 H50            5.4470     4.5495     1.5708 H       
  51 H51            4.8185     6.0721     2.2522 H       
  52 H52           -1.3474    -3.6958    -2.9922 H       
  53 H53            0.2337    -3.1336    -2.3987 H       
  54 H54            2.7312     4.9211     5.7206 H       
  55 H55            0.8962     5.0978     2.5464 H       
  56 H56            0.7938     5.1598     4.4132 H       
  57 H57            5.6122     3.5821     3.8343 H       
  58 H58            4.5137     6.2900     4.7039 H       
  59 H59            5.2239     5.0903     5.8085 H       
  60 H60            2.7625     2.5762     5.2326 H       
  61 H61            7.4286     4.9292     3.0702 H       
  62 H62            0.6448     0.0643     2.1597 H       
  63 H63            1.0899    -1.2564     1.0524 H       
  64 H64            1.9605     0.2946     0.9832 H       
  65 H65           -2.9780     1.1374    -2.2950 H       
  66 H66           -2.6255     1.8577    -0.7059 H       
  67 H67           -1.2913     1.4074    -1.7946 H       
  68 H68            1.1782    -4.3463    -0.4432 H       
  69 H69           -2.7716    -0.4686    -3.4934 H       
  70 H70           -2.1873    -2.1350    -3.7170 H       
  71 H71           -3.5668    -1.8127    -2.6394 H       
  72 H72           -2.4759    -5.6360    -1.8946 H       
  73 H73           -1.6987    -6.4560    -0.5191 H       
  74 H74           -2.3571    -4.8143    -0.3201 H       
  75 H75            1.1580    -5.4380    -2.6781 H       
  76 H76            0.3540    -6.8202    -1.8961 H       
  77 H77           -0.4232    -6.0002    -3.2716 H       
@<TRIPOS>BOND
   1    1    2 1
   2    1    3 1
   3    1    4 1
   4    1   32 1
   5    2    5 1
   6    2    6 1
   7    2   25 1
   8    3    7 2
   9    3    8 1
  10    4    9 1
  11    4   33 1
  12    4   34 1
  13    5   10 1
  14    5    9 1
  15    5   35 1
  16    6   11 1
  17    6   36 1
  18    6   37 1
  19    7   12 1
  20    7   38 1
  21    8   11 1
  22    8   39 1
  23    8   40 1
  24    9   41 1
  25    9   42 1
  26   10   13 1
  27   10   26 1
  28   10   43 1
  29   11   44 1
  30   11   45 1
  31   12   14 2
  32   12   46 1
  33   13   15 1
  34   13   29 1
  35   13   47 1
  36   14   16 1
  37   14   17 1
  38   15   18 1
  39   15   48 1
  40   15   49 1
  41   16   19 1
  42   16   20 2
  43   17   21 1
  44   17   50 1
  45   17   51 1
  46   18   27 1
  47   18   52 1
  48   18   53 1
  49   19   22 1
  50   19   23 1
  51   19   54 1
  52   20   55 1
  53   20   56 1
  54   21   24 1
  55   21   22 1
  56   21   57 1
  57   22   58 1
  58   22   59 1
  59   23   60 1
  60   24   61 1
  61   25   62 1
  62   25   63 1
  63   25   64 1
  64   26   65 1
  65   26   66 1
  66   26   67 1
  67   27   28 1
  68   27   30 1
  69   27   31 1
  70   28   68 1
  71   29   69 1
  72   29   70 1
  73   29   71 1
  74   30   72 1
  75   30   73 1
  76   30   74 1
  77   31   75 1
  78   31   76 1
  79   31   77 1

#	End of record

