#	Name: ASD01883750
#	Creating user name:	WinNT
#	Creation time:	15. 06. 2019 19:47

#	Modifying user name:	WinNT
#	Modification time:	15. 06. 2019 19:47

#	Program:	/corina/corina34_cracker 3.40 0067  02.08.2006

@<TRIPOS>MOLECULE
ASD01883750
  55   59    0    0    0
SMALL
NO_CHARGES


@<TRIPOS>ATOM
   1 C1            -0.2338     1.0734    -0.6398 C.2     
   2 C2            -0.1392    -0.3026    -0.5315 C.2     
   3 C3            -1.3219    -1.0807    -0.5394 C.2     
   4 C4            -2.5232    -0.4843    -0.6517 C.2     
   5 N5            -2.6261     0.8742    -0.7597 N.pl3   
   6 C6            -1.5059     1.6651    -0.7499 C.2     
   7 C7            -3.7037     1.7101    -0.8842 C.2     
   8 C8            -3.2250     2.9718    -0.9525 C.2     
   9 N9            -1.8936     2.9284    -0.8690 N.2     
  10 C10           -5.1527     1.2994    -0.9360 C.3     
  11 C11            1.1851    -0.9547    -0.4090 C.ar    
  12 C12            1.5237    -1.6371     0.7585 C.ar    
  13 C13            2.7625    -2.2461     0.8728 C.ar    
  14 C14            3.6694    -2.1814    -0.1804 C.ar    
  15 C15            3.3282    -1.4973    -1.3451 C.ar    
  16 C16            2.0960    -0.8931    -1.4637 C.ar    
  17 C17           -5.5952     1.1731    -2.3951 C.3     
  18 F18           -4.8134     0.2071    -3.0376 F       
  19 F19           -6.9404     0.7919    -2.4432 F       
  20 F20           -5.4364     2.4050    -3.0389 F       
  21 Cl21           1.1967     2.0570    -0.6329 Cl      
  22 O22            3.0663    -2.8949     2.0309 O.3     
  23 C23            4.1945    -3.7750     1.9979 C.3     
  24 C24            5.3369    -3.0506     1.2740 C.3     
  25 N25            4.9243    -2.7920    -0.1103 N.3     
  26 C26            5.9359    -1.9992    -0.8217 C.3     
  27 C27            6.0699    -0.6280    -0.1564 C.3     
  28 C28            7.1235     0.1976    -0.8974 C.3     
  29 C29            8.4694    -0.5282    -0.8455 C.3     
  30 C30            8.3354    -1.8994    -1.5109 C.3     
  31 C31            7.2818    -2.7251    -0.7699 C.3     
  32 O32            9.4535     0.2430    -1.5376 O.3     
  33 H33           -1.2599    -2.1556    -0.4554 H       
  34 H34           -3.4187    -1.0880    -0.6569 H       
  35 H35           -3.8208     3.8668    -1.0546 H       
  36 H36           -5.2764     0.3396    -0.4344 H       
  37 H37           -5.7618     2.0521    -0.4354 H       
  38 H38            0.8192    -1.6908     1.5753 H       
  39 H39            4.0327    -1.4440    -2.1619 H       
  40 H40            1.8386    -0.3644    -2.3696 H       
  41 H41            4.4999    -4.0214     3.0148 H       
  42 H42            3.9356    -4.6863     1.4588 H       
  43 H43            5.5472    -2.1060     1.7757 H       
  44 H44            6.2288    -3.6771     1.2790 H       
  45 H45            5.6322    -1.8708    -1.8607 H       
  46 H46            5.1111    -0.1110    -0.1933 H       
  47 H47            6.3737    -0.7565     0.8826 H       
  48 H48            6.8198     0.3260    -1.9363 H       
  49 H49            7.2190     1.1745    -0.4234 H       
  50 H50            8.7731    -0.6566     0.1934 H       
  51 H51            8.0317    -1.7710    -2.5498 H       
  52 H52            9.2942    -2.4165    -1.4739 H       
  53 H53            7.5855    -2.8535     0.2691 H       
  54 H54            7.1863    -3.7019    -1.2439 H       
  55 H55           10.3335    -0.1578    -1.5450 H       
@<TRIPOS>BOND
   1    1    2 2
   2    1   21 1
   3    1    6 1
   4    2    3 1
   5    2   11 1
   6    3    4 2
   7    3   33 1
   8    4    5 1
   9    4   34 1
  10    5    6 1
  11    5    7 1
  12    6    9 2
  13    7    8 2
  14    7   10 1
  15    8    9 1
  16    8   35 1
  17   10   17 1
  18   10   36 1
  19   10   37 1
  20   11   12 ar
  21   11   16 ar
  22   12   13 ar
  23   12   38 1
  24   13   14 ar
  25   13   22 1
  26   14   15 ar
  27   14   25 1
  28   15   16 ar
  29   15   39 1
  30   16   40 1
  31   17   18 1
  32   17   19 1
  33   17   20 1
  34   22   23 1
  35   23   24 1
  36   23   41 1
  37   23   42 1
  38   24   25 1
  39   24   43 1
  40   24   44 1
  41   25   26 1
  42   26   27 1
  43   26   31 1
  44   26   45 1
  45   27   28 1
  46   27   46 1
  47   27   47 1
  48   28   29 1
  49   28   48 1
  50   28   49 1
  51   29   30 1
  52   29   32 1
  53   29   50 1
  54   30   31 1
  55   30   51 1
  56   30   52 1
  57   31   53 1
  58   31   54 1
  59   32   55 1

#	End of record

