#	Name: ASD01411046
#	Creating user name:	WinNT
#	Creation time:	15. 06. 2019 19:19

#	Modifying user name:	WinNT
#	Modification time:	15. 06. 2019 19:19

#	Program:	/corina/corina34_cracker 3.40 0067  02.08.2006

@<TRIPOS>MOLECULE
ASD01411046
  40   42    0    0    0
SMALL
NO_CHARGES


@<TRIPOS>ATOM
   1 C1            -0.0133     1.7489     0.2914 C.2     
   2 S2            -0.0036     0.0059    -0.0292 S.3     
   3 C3            -1.7605    -0.1792     0.1410 C.2     
   4 C4            -2.2344     1.1771     0.4446 C.2     
   5 N5            -1.2865     2.0974     0.5091 N.am    
   6 O6            -3.4097     1.4342     0.6278 O.2     
   7 S7             1.3476     2.7871     0.3235 S.2     
   8 C8            -2.4963    -1.3126     0.0184 C.2     
   9 C9            -1.8257    -2.6138    -0.1058 C.ar    
  10 C10           -1.6298     3.4905     0.8050 C.3     
  11 C11           -0.4910    -2.7579     0.2896 C.ar    
  12 C12            0.1312    -3.9819     0.1705 C.ar    
  13 C13           -0.5607    -5.0689    -0.3392 C.ar    
  14 C14           -1.8819    -4.9354    -0.7335 C.ar    
  15 C15           -2.5208    -3.7184    -0.6153 C.ar    
  16 C16           -0.9164     3.9308     2.0849 C.3     
  17 Cl17          -4.1766    -3.5526    -1.1100 Cl      
  18 Cl18           0.2327    -6.6061    -0.4849 Cl      
  19 C19           -1.4412     3.1344     3.2517 C.ar    
  20 C20           -0.8376     1.9409     3.6013 C.ar    
  21 C21           -1.3190     1.2105     4.6716 C.ar    
  22 C22           -2.4036     1.6737     5.3927 C.ar    
  23 C23           -3.0066     2.8677     5.0437 C.ar    
  24 C24           -2.5225     3.6003     3.9760 C.ar    
  25 C25           -1.1953     4.3689    -0.3399 C.2     
  26 O26           -0.6543     3.8813    -1.3040 O.2     
  27 O27           -1.4091     5.6931    -0.2885 O.3     
  28 H28           -3.5749    -1.2581     0.0122 H       
  29 H29           -2.7077     3.5780     0.9413 H       
  30 H30            0.0502    -1.9120     0.6868 H       
  31 H31            1.1613    -4.0941     0.4751 H       
  32 H32           -2.4144    -5.7870    -1.1305 H       
  33 H33            0.1550     3.7598     1.9808 H       
  34 H34           -1.1002     4.9913     2.2568 H       
  35 H35            0.0098     1.5790     3.0380 H       
  36 H36           -0.8479     0.2777     4.9443 H       
  37 H37           -2.7802     1.1026     6.2284 H       
  38 H38           -3.8542     3.2294     5.6068 H       
  39 H39           -2.9936     4.5331     3.7034 H       
  40 H40           -1.1129     6.2153    -1.0465 H       
@<TRIPOS>BOND
   1    1    2 1
   2    1    7 2
   3    1    5 am
   4    2    3 1
   5    3    4 1
   6    3    8 2
   7    4    5 am
   8    4    6 2
   9    5   10 1
  10    8    9 1
  11    8   28 1
  12    9   11 ar
  13    9   15 ar
  14   10   16 1
  15   10   25 1
  16   10   29 1
  17   11   12 ar
  18   11   30 1
  19   12   13 ar
  20   12   31 1
  21   13   14 ar
  22   13   18 1
  23   14   15 ar
  24   14   32 1
  25   15   17 1
  26   16   19 1
  27   16   33 1
  28   16   34 1
  29   19   20 ar
  30   19   24 ar
  31   20   21 ar
  32   20   35 1
  33   21   22 ar
  34   21   36 1
  35   22   23 ar
  36   22   37 1
  37   23   24 ar
  38   23   38 1
  39   24   39 1
  40   25   26 2
  41   25   27 1
  42   27   40 1

#	End of record

