#	Name: ASD00910003
#	Creating user name:	WinNT
#	Creation time:	15. 06. 2019 18:53

#	Modifying user name:	WinNT
#	Modification time:	15. 06. 2019 18:53

#	Program:	/corina/corina34_cracker 3.40 0067  02.08.2006

@<TRIPOS>MOLECULE
ASD00910003
  45   44    0    0    0
SMALL
NO_CHARGES


@<TRIPOS>ATOM
   1 N1            -0.0178     1.4648     0.0101 N.3     
   2 C2             0.0021    -0.0041     0.0020 C.3     
   3 C3             0.8260    -0.5095     1.1880 C.3     
   4 C4             0.8467    -2.0393     1.1796 C.3     
   5 C5             1.6706    -2.5447     2.3657 C.3     
   6 C6             1.6914    -4.0745     2.3572 C.3     
   7 C7             2.6019    -4.5706     3.4508 C.2     
   8 N8             3.9363    -4.5850     3.2620 N.am    
   9 O9             2.1339    -4.9569     4.5009 O.2     
  10 C10            4.8214    -5.0672     4.3251 C.3     
  11 C11            6.2755    -4.9788     3.8574 C.3     
  12 C12            7.1998    -5.4824     4.9677 C.3     
  13 C13            8.6539    -5.3939     4.5000 C.3     
  14 C14            9.5783    -5.8976     5.6103 C.3     
  15 C15           10.9985    -5.9262     5.1071 C.2     
  16 O16           11.4187    -6.9453     4.3411 O.3     
  17 O17           11.7590    -5.0319     5.3932 O.2     
  18 N18            9.4873    -4.9987     6.7686 N.3     
  19 N19            0.3322    -4.5839     2.5831 N.3     
  20 H20            0.9191     1.8392     0.0032 H       
  21 H21           -0.5563     1.8234    -0.7642 H       
  22 H22           -1.0174    -0.3817     0.0806 H       
  23 H23            0.4494    -0.3563    -0.9275 H       
  24 H24            1.8454    -0.1318     1.1095 H       
  25 H25            0.3787    -0.1573     2.1176 H       
  26 H26           -0.1727    -2.4169     1.2582 H       
  27 H27            1.2940    -2.3915     0.2501 H       
  28 H28            2.6901    -2.1671     2.2871 H       
  29 H29            1.2233    -2.1925     3.2952 H       
  30 H30            2.0561    -4.4277     1.3927 H       
  31 H31            4.3106    -4.2761     2.4221 H       
  32 H32            4.6881    -4.4528     5.2155 H       
  33 H33            4.5773    -6.1035     4.5589 H       
  34 H34            6.4088    -5.5932     2.9670 H       
  35 H35            6.5195    -3.9425     3.6236 H       
  36 H36            7.0665    -4.8679     5.8581 H       
  37 H37            6.9558    -6.5187     5.2015 H       
  38 H38            8.7872    -6.0084     3.6096 H       
  39 H39            8.8980    -4.3577     4.2662 H       
  40 H40            9.2772    -6.9026     5.9058 H       
  41 H41           12.3380    -6.9198     4.0422 H       
  42 H42           10.0392    -5.3447     7.5391 H       
  43 H43            9.7615    -4.0599     6.5202 H       
  44 H44            0.3078    -5.5905     2.5180 H       
  45 H45           -0.0286    -4.2702     3.4716 H       
@<TRIPOS>BOND
   1    1    2 1
   2    1   20 1
   3    1   21 1
   4    2    3 1
   5    2   22 1
   6    2   23 1
   7    3    4 1
   8    3   24 1
   9    3   25 1
  10    4    5 1
  11    4   26 1
  12    4   27 1
  13    5    6 1
  14    5   28 1
  15    5   29 1
  16    6    7 1
  17    6   19 1
  18    6   30 1
  19    7    8 am
  20    7    9 2
  21    8   10 1
  22    8   31 1
  23   10   11 1
  24   10   32 1
  25   10   33 1
  26   11   12 1
  27   11   34 1
  28   11   35 1
  29   12   13 1
  30   12   36 1
  31   12   37 1
  32   13   14 1
  33   13   38 1
  34   13   39 1
  35   14   15 1
  36   14   18 1
  37   14   40 1
  38   15   17 2
  39   15   16 1
  40   16   41 1
  41   18   42 1
  42   18   43 1
  43   19   44 1
  44   19   45 1

#	End of record

