#	Name: ASD01152525
#	Creating user name:	WinNT
#	Creation time:	15. 06. 2019 19:06

#	Modifying user name:	WinNT
#	Modification time:	15. 06. 2019 19:06

#	Program:	/corina/corina34_cracker 3.40 0067  02.08.2006

@<TRIPOS>MOLECULE
ASD01152525
  46   48    0    0    0
SMALL
NO_CHARGES


@<TRIPOS>ATOM
   1 C1             0.1167     1.1519    -0.7093 C.2     
   2 N2             0.0222    -0.1484    -0.6273 N.2     
   3 N3            -1.1175    -0.7676    -0.1147 N.am    
   4 C4            -2.2571    -0.0984     0.1261 C.2     
   5 C5            -2.3864     1.3536    -0.2700 C.3     
   6 C6            -1.0009     1.9717    -0.2169 C.2     
   7 C7            -2.9513     1.4554    -1.6882 C.3     
   8 O8            -0.8261     3.0958     0.2061 O.2     
   9 C9            -1.0723    -2.1395     0.1590 C.ar    
  10 O10           -3.1863    -0.6624     0.6636 O.2     
  11 C11           -3.1924     2.9031    -2.0302 C.ar    
  12 C12           -0.0092    -2.6698     0.8764 C.ar    
  13 C13           -2.0947    -2.9707    -0.2823 C.ar    
  14 C14           -2.0513    -4.3247    -0.0123 C.ar    
  15 C15           -0.9912    -4.8572     0.6981 C.ar    
  16 C16            0.0321    -4.0300     1.1463 C.ar    
  17 C17           -2.1914     3.6490    -2.6240 C.ar    
  18 C18           -4.4164     3.4837    -1.7554 C.ar    
  19 C19           -4.6376     4.8117    -2.0691 C.ar    
  20 C20           -3.6345     5.5592    -2.6572 C.ar    
  21 C21           -2.4125     4.9770    -2.9376 C.ar    
  22 Cl22          -0.9411    -6.5594     1.0355 Cl      
  23 O23            1.2266     1.7351    -1.2333 O.3     
  24 C24            2.2667     0.8640    -1.6820 C.3     
  25 N25            1.1024    -4.5686     1.8699 N.am    
  26 C26            1.7658    -3.8050     2.7606 C.2     
  27 O27            1.4963    -2.6275     2.8695 O.2     
  28 C28            2.8423    -4.4144     3.6214 C.3     
  29 H29           -3.0453     1.8695     0.4284 H       
  30 H30           -2.2389     1.0290    -2.3945 H       
  31 H31           -3.8917     0.9072    -1.7450 H       
  32 H32            0.7846    -2.0250     1.2236 H       
  33 H33           -2.9243    -2.5575    -0.8367 H       
  34 H34           -2.8471    -4.9686    -0.3564 H       
  35 H35           -1.2364     3.1944    -2.8424 H       
  36 H36           -5.2001     2.8996    -1.2959 H       
  37 H37           -5.5942     5.2650    -1.8550 H       
  38 H38           -3.8075     6.5967    -2.9027 H       
  39 H39           -1.6289     5.5611    -3.3972 H       
  40 H40            1.8814     0.2113    -2.4653 H       
  41 H41            3.0921     1.4568    -2.0764 H       
  42 H42            2.6201     0.2596    -0.8466 H       
  43 H43            1.3668    -5.4914     1.7302 H       
  44 H44            3.8029    -4.3346     3.1125 H       
  45 H45            2.8900    -3.8846     4.5728 H       
  46 H46            2.6126    -5.4646     3.8014 H       
@<TRIPOS>BOND
   1    1    2 2
   2    1   23 1
   3    1    6 1
   4    2    3 1
   5    3    4 am
   6    3    9 1
   7    4    5 1
   8    4   10 2
   9    5    6 1
  10    5    7 1
  11    5   29 1
  12    6    8 2
  13    7   11 1
  14    7   30 1
  15    7   31 1
  16    9   12 ar
  17    9   13 ar
  18   11   17 ar
  19   11   18 ar
  20   12   16 ar
  21   12   32 1
  22   13   14 ar
  23   13   33 1
  24   14   15 ar
  25   14   34 1
  26   15   16 ar
  27   15   22 1
  28   16   25 1
  29   17   21 ar
  30   17   35 1
  31   18   19 ar
  32   18   36 1
  33   19   20 ar
  34   19   37 1
  35   20   21 ar
  36   20   38 1
  37   21   39 1
  38   23   24 1
  39   24   40 1
  40   24   41 1
  41   24   42 1
  42   25   26 am
  43   25   43 1
  44   26   27 2
  45   26   28 1
  46   28   44 1
  47   28   45 1
  48   28   46 1

#	End of record

