#	Name: ASD03331339
#	Creating user name:	WinNT
#	Creation time:	15. 06. 2019 20:39

#	Modifying user name:	WinNT
#	Modification time:	15. 06. 2019 20:39

#	Program:	/corina/corina34_cracker 3.40 0067  02.08.2006

@<TRIPOS>MOLECULE
ASD03331339
  52   55    0    0    0
SMALL
NO_CHARGES


@<TRIPOS>ATOM
   1 C1             0.0675     1.4854     0.3096 C.3     
   2 C2             0.0398    -0.0120     0.1333 C.2     
   3 C3             1.1169    -0.7395    -0.2488 C.2     
   4 C4             2.4641    -0.1280    -0.5450 C.3     
   5 C5             2.2651     1.3834    -0.7261 C.3     
   6 N6             1.4740     1.9148     0.3923 N.3     
   7 N7            -0.6107    -2.1148     0.0552 N.2     
   8 N8             0.7445    -2.0404    -0.3031 N.am    
   9 C9            -1.0358    -0.8953     0.3176 C.2     
  10 C10            1.5344    -3.0789    -0.6410 C.2     
  11 O11            2.6980    -2.8871    -0.9333 O.2     
  12 N12            1.0335    -4.3300    -0.6545 N.am    
  13 C13           -2.4095    -0.5216     0.7346 C.ar    
  14 C14           -3.0550    -1.2400     1.7422 C.ar    
  15 C15           -4.3346    -0.8879     2.1277 C.ar    
  16 C16           -4.9764     0.1756     1.5156 C.ar    
  17 C17           -4.3387     0.8923     0.5132 C.ar    
  18 C18           -3.0570     0.5513     0.1256 C.ar    
  19 F19           -4.9697     1.9287    -0.0808 F       
  20 F20           -6.2275     0.5161     1.8952 F       
  21 F21           -2.4301    -2.2783     2.3394 F       
  22 C22            1.5744     3.3788     0.4595 C.3     
  23 C23            1.8921    -5.4588    -1.0218 C.3     
  24 C24            2.6608    -5.9373     0.2115 C.3     
  25 C25            1.0423    -6.5847    -1.5521 C.ar    
  26 C26            1.4738    -7.3245    -2.6371 C.ar    
  27 C27            0.6942    -8.3572    -3.1236 C.ar    
  28 C28           -0.5167    -8.6504    -2.5247 C.ar    
  29 C29           -0.9479    -7.9111    -1.4392 C.ar    
  30 C30           -0.1662    -6.8812    -0.9500 C.ar    
  31 O31            1.7414    -6.4589     1.1731 O.3     
  32 H32           -0.4136     1.9648    -0.5429 H       
  33 H33           -0.4542     1.7570     1.2273 H       
  34 H34            3.1443    -0.3135     0.2863 H       
  35 H35            2.8718    -0.5587    -1.4595 H       
  36 H36            3.2366     1.8770    -0.7502 H       
  37 H37            1.7402     1.5706    -1.6629 H       
  38 H38            0.1045    -4.4831    -0.4211 H       
  39 H39           -4.8350    -1.4432     2.9072 H       
  40 H40           -2.5597     1.1126    -0.6516 H       
  41 H41            1.0464     3.7391     1.3424 H       
  42 H42            2.6234     3.6687     0.5199 H       
  43 H43            1.1277     3.8150    -0.4341 H       
  44 H44            2.5980    -5.1434    -1.7902 H       
  45 H45            3.3643    -6.7175    -0.0790 H       
  46 H46            3.2062    -5.1001     0.6471 H       
  47 H47            2.4199    -7.0955    -3.1050 H       
  48 H48            1.0311    -8.9348    -3.9717 H       
  49 H49           -1.1261    -9.4567    -2.9052 H       
  50 H50           -1.8941    -8.1399    -0.9715 H       
  51 H51           -0.5014    -6.3059    -0.0996 H       
  52 H52            2.1600    -6.7815     1.9829 H       
@<TRIPOS>BOND
   1    1    2 1
   2    1    6 1
   3    1   32 1
   4    1   33 1
   5    2    3 2
   6    2    9 1
   7    3    4 1
   8    3    8 1
   9    4    5 1
  10    4   34 1
  11    4   35 1
  12    5    6 1
  13    5   36 1
  14    5   37 1
  15    6   22 1
  16    7    8 1
  17    7    9 2
  18    8   10 am
  19    9   13 1
  20   10   11 2
  21   10   12 am
  22   12   23 1
  23   12   38 1
  24   13   14 ar
  25   13   18 ar
  26   14   15 ar
  27   14   21 1
  28   15   16 ar
  29   15   39 1
  30   16   17 ar
  31   16   20 1
  32   17   18 ar
  33   17   19 1
  34   18   40 1
  35   22   41 1
  36   22   42 1
  37   22   43 1
  38   23   24 1
  39   23   25 1
  40   23   44 1
  41   24   31 1
  42   24   45 1
  43   24   46 1
  44   25   26 ar
  45   25   30 ar
  46   26   27 ar
  47   26   47 1
  48   27   28 ar
  49   27   48 1
  50   28   29 ar
  51   28   49 1
  52   29   30 ar
  53   29   50 1
  54   30   51 1
  55   31   52 1

#	End of record

