#	Name: ASD08070006
#	Creating user name:	WinNT
#	Creation time:	15. 06. 2019 21:14

#	Modifying user name:	WinNT
#	Modification time:	15. 06. 2019 21:14

#	Program:	/corina/corina34_cracker 3.40 0067  02.08.2006

@<TRIPOS>MOLECULE
ASD08070006
  33   34    0    0    0
SMALL
NO_CHARGES


@<TRIPOS>ATOM
   1 C1            -0.0025     1.3767    -0.0265 C.ar    
   2 C2             0.0140    -0.0037    -0.0313 C.ar    
   3 C3             1.0323     2.0828     0.5637 C.ar    
   4 C4             2.0886     1.4116     1.1521 C.ar    
   5 C5             2.1181     0.0308     1.1543 C.ar    
   6 C6             1.0769    -0.6879     0.5608 C.ar    
   7 C7             1.1013    -2.1651     0.5595 C.2     
   8 N8             0.0955    -2.8552    -0.0137 N.am    
   9 C9             0.1717    -4.2498    -0.1146 C.ar    
  10 C10           -0.9788    -5.0186     0.0019 C.ar    
  11 C11            1.3970    -4.8644    -0.3369 C.ar    
  12 C12            1.4713    -6.2396    -0.4362 C.ar    
  13 C13            0.3223    -7.0073    -0.3145 C.ar    
  14 C14           -0.9029    -6.3938    -0.0977 C.ar    
  15 O15            0.3962    -8.3614    -0.4129 O.3     
  16 C16           -0.8261    -9.0894    -0.2777 C.3     
  17 C17           -0.5456   -10.5871    -0.4161 C.3     
  18 Cl18          -1.3200     2.2295    -0.7686 Cl      
  19 Cl19           3.4452    -0.8100     1.8929 Cl      
  20 O20            2.0287    -2.7582     1.0757 O.2     
  21 H21           -0.7939    -0.5531    -0.4917 H       
  22 H22            1.0145     3.1627     0.5642 H       
  23 H23            2.8924     1.9684     1.6107 H       
  24 H24           -0.6811    -2.3858    -0.3564 H       
  25 H25           -1.9327    -4.5411     0.1707 H       
  26 H26            2.2915    -4.2668    -0.4324 H       
  27 H27            2.4242    -6.7177    -0.6091 H       
  28 H28           -1.7970    -6.9921    -0.0027 H       
  29 H29           -1.2612    -8.8902     0.7017 H       
  30 H30           -1.5230    -8.7768    -1.0553 H       
  31 H31            0.1513   -10.8996     0.3615 H       
  32 H32           -1.4779   -11.1423    -0.3130 H       
  33 H33           -0.1105   -10.7863    -1.3954 H       
@<TRIPOS>BOND
   1    1    2 ar
   2    1    3 ar
   3    1   18 1
   4    2    6 ar
   5    2   21 1
   6    3    4 ar
   7    3   22 1
   8    4    5 ar
   9    4   23 1
  10    5    6 ar
  11    5   19 1
  12    6    7 1
  13    7    8 am
  14    7   20 2
  15    8    9 1
  16    8   24 1
  17    9   10 ar
  18    9   11 ar
  19   10   14 ar
  20   10   25 1
  21   11   12 ar
  22   11   26 1
  23   12   13 ar
  24   12   27 1
  25   13   14 ar
  26   13   15 1
  27   14   28 1
  28   15   16 1
  29   16   17 1
  30   16   29 1
  31   16   30 1
  32   17   31 1
  33   17   32 1
  34   17   33 1

#	End of record

