#	Name: ASD01180116
#	Creating user name:	WinNT
#	Creation time:	15. 06. 2019 19:06

#	Modifying user name:	WinNT
#	Modification time:	15. 06. 2019 19:06

#	Program:	/corina/corina34_cracker 3.40 0067  02.08.2006

@<TRIPOS>MOLECULE
ASD01180116
  66   68    0    0    0
SMALL
NO_CHARGES


@<TRIPOS>ATOM
   1 C1             0.7532     1.4790     2.0206 C.2     
   2 C2             0.6701     0.0052     1.7169 C.3     
   3 C3             2.0821    -0.5659     1.5713 C.3     
   4 O4             1.8312     2.0173     2.1114 O.2     
   5 O5            -0.3703     2.1947     2.1849 O.3     
   6 N6             2.0013    -1.9985     1.2760 N.am    
   7 C7             3.1293    -2.7161     1.1055 C.2     
   8 C8             3.0478    -4.1619     0.8075 C.ar    
   9 C9             4.2141    -4.9079     0.6304 C.ar    
  10 C10            4.1310    -6.2568     0.3530 C.ar    
  11 C11            2.8951    -6.8701     0.2498 C.ar    
  12 C12            1.7352    -6.1363     0.4243 C.ar    
  13 C13            1.8043    -4.7880     0.7078 C.ar    
  14 O14            4.2137    -2.1746     1.1968 O.2     
  15 C15            2.8120    -8.3437    -0.0544 C.3     
  16 C16            2.6093    -9.1225     1.2469 C.3     
  17 C17            2.6894   -10.6234     0.9608 C.3     
  18 C18            4.1117   -10.9849     0.5280 C.3     
  19 C19            2.3274   -11.4038     2.2260 C.3     
  20 C20            0.5554    -9.2360    -0.5999 C.2     
  21 N21            1.6831    -8.5937    -0.9540 N.am    
  22 C22            1.6374    -8.2105    -2.2427 C.2     
  23 C23            0.3443    -8.6395    -2.8161 C.ar    
  24 C24           -0.2462    -8.5260    -4.0645 C.ar    
  25 C25           -1.5097    -9.0545    -4.2777 C.ar    
  26 C26           -2.1839    -9.6935    -3.2540 C.ar    
  27 C27           -1.6058    -9.8145    -2.0001 C.ar    
  28 C28           -0.3432    -9.2910    -1.7723 C.ar    
  29 O29            2.5122    -7.6123    -2.8358 O.2     
  30 O30            0.3175    -9.6979     0.4978 O.2     
  31 C31           -0.2145     3.6089     2.4753 C.3     
  32 C32            0.5396     4.2849     1.3285 C.3     
  33 C33           -1.5938     4.2530     2.6285 C.3     
  34 C34            0.5748     3.7787     3.7749 C.3     
  35 H35            0.1540    -0.5048     2.5302 H       
  36 H36            0.1203    -0.1437     0.7876 H       
  37 H37            2.5982    -0.0558     0.7580 H       
  38 H38            2.6319    -0.4169     2.5006 H       
  39 H39            1.1359    -2.4307     1.2031 H       
  40 H40            5.1794    -4.4302     0.7100 H       
  41 H41            5.0327    -6.8352     0.2158 H       
  42 H42            0.7735    -6.6211     0.3424 H       
  43 H43            0.8982    -4.2173     0.8481 H       
  44 H44            3.7362    -8.6688    -0.5322 H       
  45 H45            3.3860    -8.8466     1.9601 H       
  46 H46            1.6312    -8.8839     1.6645 H       
  47 H47            1.9910   -10.8791     0.1639 H       
  48 H48            4.8100   -10.7292     1.3248 H       
  49 H49            4.1687   -12.0541     0.3241 H       
  50 H50            4.3695   -10.4289    -0.3734 H       
  51 H51            1.2860   -11.2131     2.4850 H       
  52 H52            2.4683   -12.4699     2.0481 H       
  53 H53            2.9702   -11.0843     3.0463 H       
  54 H54            0.2757    -8.0275    -4.8679 H       
  55 H55           -1.9708    -8.9661    -5.2503 H       
  56 H56           -3.1681   -10.1009    -3.4324 H       
  57 H57           -2.1372   -10.3148    -1.2040 H       
  58 H58           -0.0227     4.1639     0.4027 H       
  59 H59            0.6566     5.3465     1.5465 H       
  60 H60            1.5222     3.8260     1.2194 H       
  61 H61           -2.1311     3.7714     3.4455 H       
  62 H62           -1.4768     5.3146     2.8465 H       
  63 H63           -2.1562     4.1321     1.7026 H       
  64 H64            1.5575     3.3197     3.6658 H       
  65 H65            0.6918     4.8402     3.9929 H       
  66 H66            0.0376     3.2970     4.5919 H       
@<TRIPOS>BOND
   1    1    2 1
   2    1    4 2
   3    1    5 1
   4    2    3 1
   5    2   35 1
   6    2   36 1
   7    3    6 1
   8    3   37 1
   9    3   38 1
  10    5   31 1
  11    6    7 am
  12    6   39 1
  13    7    8 1
  14    7   14 2
  15    8    9 ar
  16    8   13 ar
  17    9   10 ar
  18    9   40 1
  19   10   11 ar
  20   10   41 1
  21   11   12 ar
  22   11   15 1
  23   12   13 ar
  24   12   42 1
  25   13   43 1
  26   15   16 1
  27   15   21 1
  28   15   44 1
  29   16   17 1
  30   16   45 1
  31   16   46 1
  32   17   18 1
  33   17   19 1
  34   17   47 1
  35   18   48 1
  36   18   49 1
  37   18   50 1
  38   19   51 1
  39   19   52 1
  40   19   53 1
  41   20   21 am
  42   20   28 1
  43   20   30 2
  44   21   22 am
  45   22   23 1
  46   22   29 2
  47   23   24 ar
  48   23   28 ar
  49   24   25 ar
  50   24   54 1
  51   25   26 ar
  52   25   55 1
  53   26   27 ar
  54   26   56 1
  55   27   28 ar
  56   27   57 1
  57   31   32 1
  58   31   34 1
  59   31   33 1
  60   32   58 1
  61   32   59 1
  62   32   60 1
  63   33   61 1
  64   33   62 1
  65   33   63 1
  66   34   64 1
  67   34   65 1
  68   34   66 1

#	End of record

