#	Name: ASD01885010
#	Creating user name:	WinNT
#	Creation time:	15. 06. 2019 19:49

#	Modifying user name:	WinNT
#	Modification time:	15. 06. 2019 19:49

#	Program:	/corina/corina34_cracker 3.40 0067  02.08.2006

@<TRIPOS>MOLECULE
ASD01885010
  52   56    0    0    0
SMALL
NO_CHARGES


@<TRIPOS>ATOM
   1 C1            -0.8238    -0.0458     1.1321 C.2     
   2 C2             0.0021    -0.0041     0.0020 C.2     
   3 C3            -0.4072     0.7447    -1.1181 C.2     
   4 C4            -1.5737     1.4168    -1.1171 C.2     
   5 N5            -2.4087     1.4049    -0.0395 N.pl3   
   6 N6            -3.0717     0.8652     1.9489 N.2     
   7 C7            -2.0867     0.6932     1.0901 C.2     
   8 C8            -3.6172     1.9830     0.2216 C.2     
   9 N9            -3.9665     1.6311     1.4302 N.2     
  10 C10           -4.4037     2.8660    -0.7125 C.3     
  11 C11           -5.3404     2.0041    -1.5614 C.3     
  12 C12           -6.3133     2.7269    -2.4951 C.3     
  13 C13           -5.1066     1.9849    -3.0733 C.3     
  14 C14           -0.4467    -0.7947     2.2930 C.1     
  15 N15            1.2031    -0.6882    -0.0135 N.pl3   
  16 C16            1.2376    -2.1551     0.0883 C.3     
  17 C17            2.0983    -2.7023    -1.0554 C.3     
  18 N18            3.4128    -2.0469    -1.0316 N.3     
  19 C19            3.2921    -0.6019    -1.2673 C.3     
  20 C20            2.4800     0.0309    -0.1384 C.3     
  21 C21            4.2816    -2.6337    -1.9545 C.ar    
  22 C22            5.5797    -2.1578    -2.0886 C.ar    
  23 C23            6.4362    -2.7407    -3.0018 C.ar    
  24 C24            6.0029    -3.7970    -3.7821 C.ar    
  25 C25            4.7113    -4.2732    -3.6511 C.ar    
  26 C26            3.8512    -3.6983    -2.7361 C.ar    
  27 N27           -0.1476    -1.3888     3.2139 N.1     
  28 C28            6.9402    -4.4302    -4.7778 C.3     
  29 F29            7.6375    -5.4754    -4.1626 F       
  30 F30            6.2047    -4.9319    -5.8569 F       
  31 F31            7.8486    -3.4711    -5.2384 F       
  32 H32            0.2255     0.7807    -1.9926 H       
  33 H33           -1.8555     1.9811    -1.9937 H       
  34 H34           -4.9911     3.5773    -0.1318 H       
  35 H35           -3.7180     3.4075    -1.3642 H       
  36 H36           -5.6837     1.0815    -1.0932 H       
  37 H37           -7.2965     2.2797    -2.6415 H       
  38 H38           -6.2861     3.8165    -2.5047 H       
  39 H39           -4.2855     2.5864    -3.4632 H       
  40 H40           -5.2959     1.0496    -3.6000 H       
  41 H41            1.6720    -2.4456     1.0448 H       
  42 H42            0.2256    -2.5517     0.0070 H       
  43 H43            2.2259    -3.7778    -0.9322 H       
  44 H44            1.6085    -2.5005    -2.0080 H       
  45 H45            4.2854    -0.1542    -1.2977 H       
  46 H46            2.7856    -0.4294    -2.2169 H       
  47 H47            2.2889     1.0788    -0.3695 H       
  48 H48            3.0361    -0.0455     0.7959 H       
  49 H49            5.9186    -1.3327    -1.4798 H       
  50 H50            7.4455    -2.3710    -3.1069 H       
  51 H51            4.3760    -5.0983    -4.2620 H       
  52 H52            2.8439    -4.0736    -2.6312 H       
@<TRIPOS>BOND
   1    1    2 2
   2    1   14 1
   3    1    7 1
   4    2    3 1
   5    2   15 1
   6    3    4 2
   7    3   32 1
   8    4    5 1
   9    4   33 1
  10    5    8 1
  11    5    7 1
  12    6    7 2
  13    6    9 1
  14    8    9 2
  15    8   10 1
  16   10   11 1
  17   10   34 1
  18   10   35 1
  19   11   12 1
  20   11   13 1
  21   11   36 1
  22   12   13 1
  23   12   37 1
  24   12   38 1
  25   13   39 1
  26   13   40 1
  27   14   27 3
  28   15   16 1
  29   15   20 1
  30   16   17 1
  31   16   41 1
  32   16   42 1
  33   17   18 1
  34   17   43 1
  35   17   44 1
  36   18   19 1
  37   18   21 1
  38   19   20 1
  39   19   45 1
  40   19   46 1
  41   20   47 1
  42   20   48 1
  43   21   22 ar
  44   21   26 ar
  45   22   23 ar
  46   22   49 1
  47   23   24 ar
  48   23   50 1
  49   24   25 ar
  50   24   28 1
  51   25   26 ar
  52   25   51 1
  53   26   52 1
  54   28   29 1
  55   28   30 1
  56   28   31 1

#	End of record

