#	Name: ASD01420030
#	Creating user name:	WinNT
#	Creation time:	15. 06. 2019 19:20

#	Modifying user name:	WinNT
#	Modification time:	15. 06. 2019 19:20

#	Program:	/corina/corina34_cracker 3.40 0067  02.08.2006

@<TRIPOS>MOLECULE
ASD01420030
  43   45    0    0    0
SMALL
NO_CHARGES


@<TRIPOS>ATOM
   1 C1             2.3843     0.1885     1.0093 C.ar    
   2 C2             1.6634    -0.7925     0.3615 C.ar    
   3 C3             0.9274    -0.4958    -0.7776 C.ar    
   4 C4             0.9080     0.7889    -1.2767 C.ar    
   5 C5             2.3789     1.4892     0.5239 C.ar    
   6 O6             2.9714     2.6300     0.9334 O.3     
   7 C7             1.6332     1.7904    -0.6298 C.ar    
   8 C8             1.8372     3.2208    -0.8706 C.2     
   9 C9             2.6567     3.6547     0.1168 C.2     
  10 C10            3.1339     5.0443     0.2752 C.ar    
  11 C11            2.2343     6.1081     0.1834 C.ar    
  12 C12            2.6833     7.4028     0.3322 C.ar    
  13 C13            4.0285     7.6499     0.5727 C.ar    
  14 C14            4.9266     6.5946     0.6647 C.ar    
  15 C15            4.4846     5.2967     0.5228 C.ar    
  16 C16            1.2539     4.0432    -1.9907 C.3     
  17 O17            4.4673     8.9275     0.7179 O.3     
  18 Cl18           0.0285    -1.7477    -1.5768 Cl      
  19 C19            5.8632     9.1101     0.9633 C.3     
  20 C20            6.1663    10.6037     1.0977 C.3     
  21 N21            5.4895    11.1355     2.2882 N.3     
  22 C22            6.0487    10.5536     3.5156 C.3     
  23 C23            5.5590    12.6025     2.3219 C.3     
  24 H24            2.9497    -0.0542     1.8970 H       
  25 H25            1.6717    -1.8024     0.7442 H       
  26 H26            0.3355     1.0189    -2.1632 H       
  27 H27            1.1880     5.9169    -0.0044 H       
  28 H28            1.9881     8.2262     0.2613 H       
  29 H29            5.9720     6.7909     0.8519 H       
  30 H30            5.1829     4.4763     0.5990 H       
  31 H31            0.3425     4.5318    -1.6461 H       
  32 H32            1.9759     4.7984    -2.3011 H       
  33 H33            1.0213     3.3942    -2.8349 H       
  34 H34            6.1399     8.5988     1.8854 H       
  35 H35            6.4353     8.6965     0.1328 H       
  36 H36            7.2421    10.7487     1.1962 H       
  37 H37            5.8085    11.1282     0.2117 H       
  38 H38            7.1101    10.7934     3.5806 H       
  39 H39            5.5298    10.9645     4.3816 H       
  40 H40            5.9213     9.4713     3.4954 H       
  41 H41            5.0755    13.0096     1.4339 H       
  42 H42            5.0504    12.9699     3.2133 H       
  43 H43            6.6026    12.9164     2.3437 H       
@<TRIPOS>BOND
   1    1    2 ar
   2    1    5 ar
   3    1   24 1
   4    2    3 ar
   5    2   25 1
   6    3    4 ar
   7    3   18 1
   8    4    7 ar
   9    4   26 1
  10    5    7 ar
  11    5    6 1
  12    6    9 1
  13    7    8 1
  14    8    9 2
  15    8   16 1
  16    9   10 1
  17   10   11 ar
  18   10   15 ar
  19   11   12 ar
  20   11   27 1
  21   12   13 ar
  22   12   28 1
  23   13   14 ar
  24   13   17 1
  25   14   15 ar
  26   14   29 1
  27   15   30 1
  28   16   31 1
  29   16   32 1
  30   16   33 1
  31   17   19 1
  32   19   20 1
  33   19   34 1
  34   19   35 1
  35   20   21 1
  36   20   36 1
  37   20   37 1
  38   21   22 1
  39   21   23 1
  40   22   38 1
  41   22   39 1
  42   22   40 1
  43   23   41 1
  44   23   42 1
  45   23   43 1

#	End of record

