#	Name: ASD01140255
#	Creating user name:	WinNT
#	Creation time:	15. 06. 2019 19:00

#	Modifying user name:	WinNT
#	Modification time:	15. 06. 2019 19:00

#	Program:	/corina/corina34_cracker 3.40 0067  02.08.2006

@<TRIPOS>MOLECULE
ASD01140255
  35   37    0    0    0
SMALL
NO_CHARGES


@<TRIPOS>ATOM
   1 C1            -0.0722     1.2733    -0.0438 C.ar    
   2 C2             0.0278    -0.1059     0.0525 C.ar    
   3 C3             1.2649    -0.7157     0.0541 C.ar    
   4 C4             2.4232     0.0586    -0.0417 C.ar    
   5 C5             2.3178     1.4548    -0.1390 C.ar    
   6 C6             1.0644     2.0513    -0.1391 C.ar    
   7 Br7           -1.5392    -1.1562     0.1829 Br      
   8 C8             3.7502    -0.5874    -0.0401 C.2     
   9 O9             4.2171    -1.0167     0.9994 O.2     
  10 C10            4.5055    -0.7121    -1.2887 C.2     
  11 C11            5.7799    -1.1986    -1.4008 C.2     
  12 C12            6.2472    -1.2039    -2.6925 C.2     
  13 C13            5.3891    -0.7389    -3.6094 C.2     
  14 S14            3.9178    -0.2678    -2.8853 S.3     
  15 N15            3.4653     2.2379    -0.2346 N.am    
  16 C16            3.4531     3.3637    -0.9755 C.2     
  17 O17            2.4184     3.7420    -1.4892 O.2     
  18 C18            4.6977     4.1383    -1.1634 C.ar    
  19 C19            4.6885     5.3048    -1.9302 C.ar    
  20 C20            5.8537     6.0233    -2.1012 C.ar    
  21 C21            7.0297     5.5900    -1.5151 C.ar    
  22 C22            7.0459     4.4344    -0.7542 C.ar    
  23 C23            5.8865     3.7098    -0.5701 C.ar    
  24 H24           -1.0453     1.7418    -0.0488 H       
  25 H25            1.3377    -1.7906     0.1296 H       
  26 H26            0.9782     3.1252    -0.2137 H       
  27 H27            6.3601    -1.5436    -0.5578 H       
  28 H28            7.2349    -1.5570    -2.9498 H       
  29 H29            5.5988    -0.6745    -4.6669 H       
  30 H30            4.2734     1.9732     0.2321 H       
  31 H31            3.7714     5.6438    -2.3889 H       
  32 H32            5.8479     6.9260    -2.6942 H       
  33 H33            7.9392     6.1560    -1.6524 H       
  34 H34            7.9673     4.1012    -0.3000 H       
  35 H35            5.8994     2.8107     0.0280 H       
@<TRIPOS>BOND
   1    1    2 ar
   2    1    6 ar
   3    1   24 1
   4    2    3 ar
   5    2    7 1
   6    3    4 ar
   7    3   25 1
   8    4    5 ar
   9    4    8 1
  10    5    6 ar
  11    5   15 1
  12    6   26 1
  13    8    9 2
  14    8   10 1
  15   10   11 2
  16   10   14 1
  17   11   12 1
  18   11   27 1
  19   12   13 2
  20   12   28 1
  21   13   14 1
  22   13   29 1
  23   15   16 am
  24   15   30 1
  25   16   17 2
  26   16   18 1
  27   18   19 ar
  28   18   23 ar
  29   19   20 ar
  30   19   31 1
  31   20   21 ar
  32   20   32 1
  33   21   22 ar
  34   21   33 1
  35   22   23 ar
  36   22   34 1
  37   23   35 1

#	End of record

