#	Name: ASD00844223
#	Creating user name:	WinNT
#	Creation time:	15. 06. 2019 18:49

#	Modifying user name:	WinNT
#	Modification time:	15. 06. 2019 18:49

#	Program:	/corina/corina34_cracker 3.40 0067  02.08.2006

@<TRIPOS>MOLECULE
ASD00844223
  94   99    0    0    0
SMALL
NO_CHARGES


@<TRIPOS>ATOM
   1 C1            -0.0064     1.3877     0.0273 C.ar    
   2 C2             0.0087     0.0008     0.0136 C.ar    
   3 C3             1.2191    -0.6774    -0.0051 C.ar    
   4 C4             2.4056     0.0298    -0.0099 C.ar    
   5 C5             2.3878     1.4124     0.0043 C.ar    
   6 C6             1.1832     2.0905     0.0224 C.ar    
   7 C7             1.2391    -2.1842    -0.0195 C.3     
   8 C8             0.4943    -2.7133    -1.2266 C.2     
   9 N9             2.6183    -2.6782    -0.0100 N.am    
  10 C10            3.4640    -2.3347    -1.0016 C.2     
  11 N11            4.7595    -2.7012    -0.9396 N.am    
  12 O12            3.0582    -1.6941    -1.9520 O.2     
  13 C13            5.2964    -3.3781     0.2507 C.3     
  14 C14            6.0330    -4.6441    -0.2000 C.3     
  15 N15            7.0323    -4.2895    -1.2167 N.3     
  16 C16            6.3956    -3.7379    -2.4201 C.3     
  17 C17            5.6724    -2.4403    -2.0629 C.3     
  18 C18            7.8766    -5.4445    -1.5503 C.3     
  19 C19            8.8204    -5.0740    -2.6977 C.3     
  20 C20            9.7385    -6.2605    -2.9998 C.3     
  21 N21           10.5104    -6.6022    -1.7982 N.3     
  22 C22            9.6272    -7.0069    -0.6970 C.3     
  23 C23            8.7057    -5.8427    -0.3261 C.3     
  24 C24           11.5020    -7.6464    -2.0887 C.3     
  25 O25            0.7737    -2.5133    -2.3897 O.2     
  26 N26           -0.5337    -3.4464    -0.7680 N.am    
  27 C27            0.4674    -2.7358     1.1578 C.ar    
  28 C28           -0.5803    -3.4816     0.6229 C.ar    
  29 C29            0.6321    -2.6199     2.5147 C.ar    
  30 C30           -0.2625    -3.2580     3.3814 C.ar    
  31 C31           -1.3180    -4.0094     2.8509 C.ar    
  32 C32           -1.4719    -4.1193     1.4855 C.ar    
  33 F33           -2.1870    -4.6293     3.6791 F       
  34 C34           -0.9894    -5.8351    -2.0566 C.ar    
  35 C35           -1.3175    -6.8792    -1.2115 C.ar    
  36 C36           -0.1700    -6.0573    -3.1479 C.ar    
  37 C37            0.3231    -7.3236    -3.3964 C.ar    
  38 C38           -0.0045    -8.3728    -2.5500 C.ar    
  39 C39           -0.8266    -8.1472    -1.4555 C.ar    
  40 O40            0.4789    -9.6195    -2.7926 O.3     
  41 H41           -1.9578    -6.7031    -0.3598 H       
  42 C42            0.1002   -10.6513    -1.8794 C.3     
  43 C43           12.4464    -7.7992    -0.8947 C.3     
  44 C44           13.4791    -8.8867    -1.1973 C.3     
  45 O45           -1.1600    -0.6927     0.0188 O.3     
  46 C46           -2.3675     0.0712     0.0387 C.3     
  47 C47           -3.5697    -0.8752     0.0419 C.3     
  48 F48           -3.5400    -1.6707    -1.1086 F       
  49 F49           -3.5165    -1.6930     1.1757 F       
  50 C50           -0.0992    -3.1437     4.7995 C.1     
  51 N51            0.0303    -3.0531     5.9244 N.1     
  52 S52           -1.6226    -4.2204    -1.7465 S.o2    
  53 O53           -2.8032    -4.3937    -0.9747 O.2     
  54 O54           -1.6014    -3.5351    -2.9912 O.2     
  55 H55           -0.9472     1.9179     0.0373 H       
  56 H56            3.3479    -0.4976    -0.0244 H       
  57 H57            3.3166     1.9635     0.0012 H       
  58 H58            1.1720     3.1703     0.0334 H       
  59 H59            2.9228    -3.2525     0.7100 H       
  60 H60            5.9903    -2.7150     0.7672 H       
  61 H61            4.4783    -3.6486     0.9183 H       
  62 H62            6.5308    -5.0995     0.6560 H       
  63 H63            5.3180    -5.3496    -0.6233 H       
  64 H64            7.1564    -3.5361    -3.1742 H       
  65 H65            5.6756    -4.4561    -2.8124 H       
  66 H66            5.1045    -2.0885    -2.9242 H       
  67 H67            6.4004    -1.6848    -1.7674 H       
  68 H68            7.2466    -6.2810    -1.8525 H       
  69 H69            8.2362    -4.8306    -3.5852 H       
  70 H70            9.4223    -4.2121    -2.4099 H       
  71 H71            9.1367    -7.1180    -3.3009 H       
  72 H72           10.4214    -5.9950    -3.8068 H       
  73 H73            9.0259    -7.8609    -1.0089 H       
  74 H74           10.2292    -7.2835     0.1685 H       
  75 H75            9.3059    -4.9929    -0.0010 H       
  76 H76            8.0397    -6.1485     0.4807 H       
  77 H77           10.9912    -8.5918    -2.2713 H       
  78 H78           12.0757    -7.3668    -2.9723 H       
  79 H79            1.4500    -2.0380     2.9132 H       
  80 H80           -2.2878    -4.7003     1.0817 H       
  81 H81            0.0845    -5.2403    -3.8067 H       
  82 H82            0.9629    -7.4967    -4.2492 H       
  83 H83           -1.0834    -8.9624    -0.7953 H       
  84 H84            0.4437   -10.3938    -0.8775 H       
  85 H85           -0.9850   -10.7535    -1.8763 H       
  86 H86            0.5530   -11.5936    -2.1877 H       
  87 H87           12.9572    -6.8538    -0.7121 H       
  88 H88           11.8726    -8.0788    -0.0111 H       
  89 H89           12.9683    -9.8322    -1.3799 H       
  90 H90           14.0529    -8.6072    -2.0809 H       
  91 H91           14.1519    -8.9956    -0.3466 H       
  92 H92           -2.3907     0.6909     0.9351 H       
  93 H93           -2.4090     0.7083    -0.8447 H       
  94 H94           -4.4908    -0.2926     0.0571 H       
@<TRIPOS>BOND
   1    1    2 ar
   2    1    6 ar
   3    1   55 1
   4    2    3 ar
   5    2   45 1
   6    3    4 ar
   7    3    7 1
   8    4    5 ar
   9    4   56 1
  10    5    6 ar
  11    5   57 1
  12    6   58 1
  13    7    8 1
  14    7    9 1
  15    7   27 1
  16    8   25 2
  17    8   26 am
  18    9   10 am
  19    9   59 1
  20   10   11 am
  21   10   12 2
  22   11   13 1
  23   11   17 1
  24   13   14 1
  25   13   60 1
  26   13   61 1
  27   14   15 1
  28   14   62 1
  29   14   63 1
  30   15   16 1
  31   15   18 1
  32   16   17 1
  33   16   64 1
  34   16   65 1
  35   17   66 1
  36   17   67 1
  37   18   19 1
  38   18   23 1
  39   18   68 1
  40   19   20 1
  41   19   69 1
  42   19   70 1
  43   20   21 1
  44   20   71 1
  45   20   72 1
  46   21   22 1
  47   21   24 1
  48   22   23 1
  49   22   73 1
  50   22   74 1
  51   23   75 1
  52   23   76 1
  53   24   43 1
  54   24   77 1
  55   24   78 1
  56   26   52 am
  57   26   28 1
  58   27   28 ar
  59   27   29 ar
  60   28   32 ar
  61   29   30 ar
  62   29   79 1
  63   30   31 ar
  64   30   50 1
  65   31   32 ar
  66   31   33 1
  67   32   80 1
  68   34   35 ar
  69   34   36 ar
  70   34   52 1
  71   35   41 1
  72   35   39 ar
  73   36   37 ar
  74   36   81 1
  75   37   38 ar
  76   37   82 1
  77   38   39 ar
  78   38   40 1
  79   39   83 1
  80   40   42 1
  81   42   84 1
  82   42   85 1
  83   42   86 1
  84   43   44 1
  85   43   87 1
  86   43   88 1
  87   44   89 1
  88   44   90 1
  89   44   91 1
  90   45   46 1
  91   46   47 1
  92   46   92 1
  93   46   93 1
  94   47   48 1
  95   47   49 1
  96   47   94 1
  97   50   51 3
  98   52   53 2
  99   52   54 2

#	End of record

