#	Name: ASD03091831
#	Creating user name:	WinNT
#	Creation time:	15. 06. 2019 20:31

#	Modifying user name:	WinNT
#	Modification time:	15. 06. 2019 20:31

#	Program:	/corina/corina34_cracker 3.40 0067  02.08.2006

@<TRIPOS>MOLECULE
ASD03091831
  47   51    0    0    0
SMALL
NO_CHARGES


@<TRIPOS>ATOM
   1 N1            -0.0165     1.3634     0.0095 N.pl3   
   2 C2             0.0021    -0.0041     0.0020 C.2     
   3 C3             1.2718    -0.4437    -0.0125 C.2     
   4 C4             2.1333     0.7377    -0.0143 C.ar    
   5 C5             3.5268     0.9315    -0.0270 C.ar    
   6 C6             4.0354     2.2242    -0.0253 C.ar    
   7 C7             3.1771     3.3113    -0.0108 C.ar    
   8 C8             1.8102     3.1321     0.0021 C.ar    
   9 C9             1.2726     1.8487    -0.0002 C.ar    
  10 C10            4.4429    -0.2319    -0.0415 C.ar    
  11 C11            5.8235    -0.0337    -0.0540 C.ar    
  12 N12            3.9502    -1.4682    -0.0371 N.ar    
  13 N13            6.6381    -1.0725    -0.0669 N.ar    
  14 C14            6.1445    -2.3034    -0.0681 C.ar    
  15 C15            4.7678    -2.5031    -0.0501 C.ar    
  16 O16            6.9835    -3.3695    -0.0814 O.3     
  17 C17           10.6466    -3.9888     0.4665 C.3     
  18 C18            9.1348    -4.2233     0.6157 C.3     
  19 C19            8.3852    -3.0920    -0.0937 C.3     
  20 C20            8.8695    -2.9795    -1.5421 C.3     
  21 C21           10.3992    -2.8293    -1.5451 C.3     
  22 C22           10.7700    -1.7458    -0.5063 C.3     
  23 C23           10.9334    -2.5120     0.8228 C.3     
  24 N24           10.9664    -4.0838    -0.9828 N.3     
  25 C25           12.4181    -4.1482    -1.1984 C.3     
  26 H26           -0.8178     1.9099     0.0165 H       
  27 H27           -0.8734    -0.6364     0.0075 H       
  28 H28            1.5948    -1.4743    -0.0205 H       
  29 H29            5.1037     2.3822    -0.0350 H       
  30 H30            3.5838     4.3118    -0.0093 H       
  31 H31            1.1547     3.9904     0.0137 H       
  32 H32            6.2256     0.9686    -0.0534 H       
  33 H33            4.3682    -3.5064    -0.0461 H       
  34 H34           11.2311    -4.6803     1.0733 H       
  35 H35            8.8671    -5.1783     0.1635 H       
  36 H36            8.8691    -4.2307     1.6727 H       
  37 H37            8.5732    -2.1517     0.4246 H       
  38 H38            8.5899    -3.8786    -2.0914 H       
  39 H39            8.4161    -2.1068    -2.0120 H       
  40 H40           10.7872    -2.5990    -2.5373 H       
  41 H41           11.7063    -1.2606    -0.7821 H       
  42 H42            9.9702    -1.0098    -0.4240 H       
  43 H43           10.2141    -2.1527     1.5587 H       
  44 H44           11.9501    -2.4035     1.2006 H       
  45 H45           12.8219    -5.0256    -0.6931 H       
  46 H46           12.6240    -4.2172    -2.2665 H       
  47 H47           12.8855    -3.2497    -0.7955 H       
@<TRIPOS>BOND
   1    1    2 1
   2    1    9 1
   3    1   26 1
   4    2    3 2
   5    2   27 1
   6    3    4 1
   7    3   28 1
   8    4    5 ar
   9    4    9 ar
  10    5    6 ar
  11    5   10 1
  12    6    7 ar
  13    6   29 1
  14    7    8 ar
  15    7   30 1
  16    8    9 ar
  17    8   31 1
  18   10   11 ar
  19   10   12 ar
  20   11   13 ar
  21   11   32 1
  22   12   15 ar
  23   13   14 ar
  24   14   15 ar
  25   14   16 1
  26   15   33 1
  27   16   19 1
  28   17   18 1
  29   17   23 1
  30   17   24 1
  31   17   34 1
  32   18   19 1
  33   18   35 1
  34   18   36 1
  35   19   20 1
  36   19   37 1
  37   20   21 1
  38   20   38 1
  39   20   39 1
  40   21   22 1
  41   21   24 1
  42   21   40 1
  43   22   23 1
  44   22   41 1
  45   22   42 1
  46   23   43 1
  47   23   44 1
  48   24   25 1
  49   25   45 1
  50   25   46 1
  51   25   47 1

#	End of record

