#	Name: ASD01200276
#	Creating user name:	WinNT
#	Creation time:	15. 06. 2019 19:08

#	Modifying user name:	WinNT
#	Modification time:	15. 06. 2019 19:08

#	Program:	/corina/corina34_cracker 3.40 0067  02.08.2006

@<TRIPOS>MOLECULE
ASD01200276
  49   52    0    0    0
SMALL
NO_CHARGES


@<TRIPOS>ATOM
   1 C1             0.5708     1.2336     1.0524 C.2     
   2 C2             0.8158     0.0137     1.5676 C.2     
   3 N3             2.1453    -0.1578     1.6137 N.2     
   4 C4             2.7334     0.9095     1.1468 C.2     
   5 N5             1.7869     1.8023     0.7853 N.pl3   
   6 C6            -0.2218    -0.9838     2.0139 C.3     
   7 F7            -0.5675    -1.8097     0.9390 F       
   8 F8             0.2975    -1.7636     3.0529 F       
   9 F9            -1.3587    -0.3042     2.4643 F       
  10 C10            2.0184     3.1310     0.2133 C.3     
  11 C11            2.7762     2.9951    -1.0823 C.2     
  12 C12            2.8344     3.9739     1.1954 C.3     
  13 C13            2.0459     4.1489     2.4948 C.3     
  14 C14            2.9195     4.8475     3.5515 C.3     
  15 C15            2.2019     6.1634     3.9165 C.3     
  16 C16            0.7192     5.9007     3.5540 C.3     
  17 C17            0.8279     5.0647     2.2546 C.3     
  18 N18            2.9847     4.0775    -1.8577 N.am    
  19 O19            3.1984     1.9117    -1.4270 O.2     
  20 C20            3.7015     3.9556    -3.0452 C.ar    
  21 C21            3.8398     2.7043    -3.6378 C.ar    
  22 C22            4.5520     2.5906    -4.8154 C.ar    
  23 C23            5.1108     3.7491    -5.3700 C.ar    
  24 C24            4.9290     4.9675    -4.7172 C.ar    
  25 N25            4.2378     5.0331    -3.5980 N.ar    
  26 C26            5.8831     3.6807    -6.6298 C.2     
  27 N27            6.1267     2.5997    -7.3411 N.2     
  28 N28            6.8257     2.8920    -8.3779 N.2     
  29 N29            7.0775     4.1557    -8.4085 N.2     
  30 N30            6.4692     4.7205    -7.2738 N.pl3   
  31 H31           -0.3989     1.6763     0.8790 H       
  32 H32            3.8004     1.0548     1.0635 H       
  33 H33            1.0613     3.6173     0.0251 H       
  34 H34            3.7784     3.4720     1.4079 H       
  35 H35            3.0336     4.9517     0.7567 H       
  36 H36            1.7168     3.1780     2.8651 H       
  37 H37            3.0136     4.2160     4.4349 H       
  38 H38            3.9052     5.0619     3.1385 H       
  39 H39            2.3033     6.3704     4.9819 H       
  40 H40            2.5981     6.9902     3.3269 H       
  41 H41            0.2245     5.3302     4.3401 H       
  42 H42            0.1952     6.8381     3.3675 H       
  43 H43            1.0022     5.7140     1.3967 H       
  44 H44           -0.0734     4.4698     2.1072 H       
  45 H45            2.6354     4.9415    -1.5886 H       
  46 H46            3.3955     1.8319    -3.1818 H       
  47 H47            4.6754     1.6317    -5.2969 H       
  48 H48            5.3557     5.8671    -5.1356 H       
  49 H49            6.4725     5.6529    -7.0062 H       
@<TRIPOS>BOND
   1    1    2 2
   2    1    5 1
   3    1   31 1
   4    2    3 1
   5    2    6 1
   6    3    4 2
   7    4    5 1
   8    4   32 1
   9    5   10 1
  10    6    7 1
  11    6    8 1
  12    6    9 1
  13   10   11 1
  14   10   12 1
  15   10   33 1
  16   11   18 am
  17   11   19 2
  18   12   13 1
  19   12   34 1
  20   12   35 1
  21   13   14 1
  22   13   17 1
  23   13   36 1
  24   14   15 1
  25   14   37 1
  26   14   38 1
  27   15   16 1
  28   15   39 1
  29   15   40 1
  30   16   17 1
  31   16   41 1
  32   16   42 1
  33   17   43 1
  34   17   44 1
  35   18   20 1
  36   18   45 1
  37   20   21 ar
  38   20   25 ar
  39   21   22 ar
  40   21   46 1
  41   22   23 ar
  42   22   47 1
  43   23   24 ar
  44   23   26 1
  45   24   25 ar
  46   24   48 1
  47   26   27 2
  48   26   30 1
  49   27   28 1
  50   28   29 2
  51   29   30 1
  52   30   49 1

#	End of record

