#	Name: ASD04012014
#	Creating user name:	WinNT
#	Creation time:	15. 06. 2019 20:48

#	Modifying user name:	WinNT
#	Modification time:	15. 06. 2019 20:48

#	Program:	/corina/corina34_cracker 3.40 0067  02.08.2006

@<TRIPOS>MOLECULE
ASD04012014
  32   34    0    0    0
SMALL
NO_CHARGES


@<TRIPOS>ATOM
   1 N1             1.1539     2.6576    -0.9393 N.pl3   
   2 C2             0.9396     1.5143    -0.2211 C.2     
   3 N3            -0.1369     1.3873     0.5565 N.2     
   4 C4            -1.0224     2.3592     0.6538 C.2     
   5 C5            -0.8451     3.5444    -0.0616 C.2     
   6 C6             0.2573     3.6870    -0.8570 C.2     
   7 N7             2.3470     2.5054    -1.6536 N.2     
   8 C8             2.8600     1.3304    -1.4015 C.2     
   9 C9             2.0169     0.6528    -0.5012 C.2     
  10 O10            0.4530     4.8251    -1.5606 O.3     
  11 C11           -1.8555     4.6573     0.0462 C.3     
  12 C12           -1.6357     5.4126     1.3316 C.ar    
  13 Cl13          -2.4133     2.1639     1.6742 Cl      
  14 C14           -2.6784     5.5757     2.2244 C.ar    
  15 C15           -2.4768     6.2686     3.4034 C.ar    
  16 C16           -1.2324     6.7979     3.6900 C.ar    
  17 C17           -0.1894     6.6340     2.7976 C.ar    
  18 C18           -0.3899     5.9374     1.6206 C.ar    
  19 C19           -1.6928     5.6104    -1.1396 C.3     
  20 C20            2.2173    -0.6621     0.0294 C.1     
  21 N21            2.3763    -1.7051     0.4504 N.1     
  22 H22            3.7790     0.9430    -1.8159 H       
  23 H23            1.2614     4.8253    -2.0912 H       
  24 H24           -2.8611     4.2370     0.0392 H       
  25 H25           -3.6507     5.1622     2.0005 H       
  26 H26           -3.2917     6.3966     4.1006 H       
  27 H27           -1.0751     7.3398     4.6108 H       
  28 H28            0.7827     7.0478     3.0214 H       
  29 H29            0.4249     5.8093     0.9234 H       
  30 H30           -1.6427     5.0350    -2.0640 H       
  31 H31           -2.5447     6.2891    -1.1797 H       
  32 H32           -0.7750     6.1861    -1.0197 H       
@<TRIPOS>BOND
   1    1    7 1
   2    1    2 1
   3    1    6 1
   4    2    3 1
   5    2    9 2
   6    3    4 2
   7    4    5 1
   8    4   13 1
   9    5    6 2
  10    5   11 1
  11    6   10 1
  12    7    8 2
  13    8    9 1
  14    8   22 1
  15    9   20 1
  16   10   23 1
  17   11   12 1
  18   11   19 1
  19   11   24 1
  20   12   14 ar
  21   12   18 ar
  22   14   15 ar
  23   14   25 1
  24   15   16 ar
  25   15   26 1
  26   16   17 ar
  27   16   27 1
  28   17   18 ar
  29   17   28 1
  30   18   29 1
  31   19   30 1
  32   19   31 1
  33   19   32 1
  34   20   21 3

#	End of record

