#	Name: ASD00844951
#	Creating user name:	WinNT
#	Creation time:	15. 06. 2019 18:51

#	Modifying user name:	WinNT
#	Modification time:	15. 06. 2019 18:51

#	Program:	/corina/corina34_cracker 3.40 0067  02.08.2006

@<TRIPOS>MOLECULE
ASD00844951
  90   95    0    0    0
SMALL
NO_CHARGES


@<TRIPOS>ATOM
   1 F1             5.6882    -2.1815    -1.9698 F       
   2 C2             0.7277     1.2401    -0.3889 C.ar    
   3 C3             0.9743    -0.0984    -0.6563 C.ar    
   4 C4             0.8532    -1.0395     0.3560 C.ar    
   5 C5             0.4876    -0.6415     1.6272 C.ar    
   6 C6             0.2419     0.6935     1.8911 C.ar    
   7 C7             0.3623     1.6331     0.8843 C.ar    
   8 C8             1.1199    -2.4947     0.0689 C.3     
   9 C9             0.7947    -3.3425     1.2801 C.2     
  10 C10            0.3088    -2.9578    -1.1430 C.3     
  11 C11           -1.1518    -2.6688    -0.9100 C.2     
  12 N12           -2.0723    -3.0900    -1.7999 N.am    
  13 O13           -1.4989    -2.0574     0.0781 O.2     
  14 C14           -3.4887    -2.7220    -1.6522 C.3     
  15 C15           -3.9812    -2.1390    -2.9810 C.3     
  16 N16           -3.6960    -3.0889    -4.0646 N.3     
  17 C17           -2.2506    -3.2991    -4.2222 C.3     
  18 C18           -1.6862    -3.9246    -2.9477 C.3     
  19 C19           -4.3043    -2.6464    -5.3263 C.3     
  20 C20           -3.8838    -3.5906    -6.4560 C.3     
  21 C21           -4.5688    -3.1607    -7.7552 C.3     
  22 N22           -6.0260    -3.1992    -7.5777 N.3     
  23 C23           -6.4582    -2.2653    -6.5302 C.3     
  24 C24           -5.8296    -2.6685    -5.1944 C.3     
  25 C25           -6.7180    -2.9264    -8.8445 C.3     
  26 O26           -0.2900    -3.4539     1.8112 O.2     
  27 N27            1.9333    -3.9488     1.6560 N.am    
  28 C28            2.5959    -2.7278    -0.1579 C.ar    
  29 C29            3.0092    -3.6095     0.8330 C.ar    
  30 C30            3.4856    -2.2495    -1.0936 C.ar    
  31 C31            4.8120    -2.6480    -1.0533 C.ar    
  32 C32            5.2367    -3.5277    -0.0691 C.ar    
  33 C33            4.3436    -4.0073     0.8697 C.ar    
  34 F34            6.5296    -3.9174    -0.0280 F       
  35 C35            1.7242    -6.6045     2.3475 C.ar    
  36 C36            2.7639    -7.3918     1.8892 C.ar    
  37 C37            0.4315    -7.0941     2.3406 C.ar    
  38 C38            0.1784    -8.3710     1.8755 C.ar    
  39 C39            1.2181    -9.1582     1.4169 C.ar    
  40 C40            2.5108    -8.6686     1.4237 C.ar    
  41 H41            1.0204   -10.1558     1.0535 H       
  42 H42            3.7739    -7.0093     1.8946 H       
  43 C43           -8.2258    -3.0974    -8.6490 C.3     
  44 C44           -6.4208    -1.4931    -9.2896 C.3     
  45 O45            1.3334    -0.4875    -1.9079 O.3     
  46 C46            1.3603     0.5224    -2.9186 C.3     
  47 C47            1.8684    -0.0813    -4.2294 C.3     
  48 F48            3.1219    -0.6658    -4.0187 F       
  49 F49            0.9683    -1.0558    -4.6739 F       
  50 S50            2.0477    -4.9795     2.9471 S.o2    
  51 O51            3.4095    -4.9652     3.3526 O.2     
  52 O52            0.9739    -4.6521     3.8183 O.2     
  53 H53            0.8256     1.9751    -1.1742 H       
  54 H54            0.3932    -1.3737     2.4155 H       
  55 H55           -0.0445     1.0026     2.8855 H       
  56 H56            0.1699     2.6752     1.0929 H       
  57 H57            0.6473    -2.4253    -2.0318 H       
  58 H58            0.4489    -4.0293    -1.2860 H       
  59 H59           -4.0729    -3.6076    -1.4020 H       
  60 H60           -3.5930    -1.9763    -0.8641 H       
  61 H61           -5.0555    -1.9630    -2.9250 H       
  62 H62           -3.4678    -1.1978    -3.1778 H       
  63 H63           -2.0698    -3.9644    -5.0665 H       
  64 H64           -1.7613    -2.3417    -4.4017 H       
  65 H65           -0.5996    -3.9766    -3.0156 H       
  66 H66           -2.0962    -4.9263    -2.8188 H       
  67 H67           -3.9722    -1.6338    -5.5554 H       
  68 H68           -2.8022    -3.5470    -6.5832 H       
  69 H69           -4.1808    -4.6097    -6.2080 H       
  70 H70           -4.2607    -2.1467    -8.0099 H       
  71 H71           -4.2827    -3.8396    -8.5585 H       
  72 H72           -6.1412    -1.2554    -6.7906 H       
  73 H73           -7.5444    -2.2938    -6.4438 H       
  74 H74           -6.1572    -3.6730    -4.9265 H       
  75 H75           -6.1382    -1.9659    -4.4202 H       
  76 H76           -6.3691    -3.6233    -9.6065 H       
  77 H77            3.1498    -1.5648    -1.8584 H       
  78 H78            4.6810    -4.6919     1.6338 H       
  79 H79           -0.3808    -6.4790     2.6989 H       
  80 H80           -0.8315    -8.7537     1.8708 H       
  81 H81            3.3231    -9.2837     1.0657 H       
  82 H82           -8.5748    -2.4005    -7.8870 H       
  83 H83           -8.7393    -2.8950    -9.5890 H       
  84 H84           -8.4376    -4.1185    -8.3319 H       
  85 H85           -6.7697    -0.7962    -8.5275 H       
  86 H86           -5.3466    -1.3713    -9.4288 H       
  87 H87           -6.9343    -1.2906   -10.2295 H       
  88 H88            0.3545     0.9160    -3.0657 H       
  89 H89            2.0245     1.3291    -2.6086 H       
  90 H90            1.9551     0.7031    -4.9812 H       
@<TRIPOS>BOND
   1    1   31 1
   2    2    3 ar
   3    2    7 ar
   4    2   53 1
   5    3    4 ar
   6    3   45 1
   7    4    5 ar
   8    4    8 1
   9    5    6 ar
  10    5   54 1
  11    6    7 ar
  12    6   55 1
  13    7   56 1
  14    8    9 1
  15    8   10 1
  16    8   28 1
  17    9   26 2
  18    9   27 am
  19   10   11 1
  20   10   57 1
  21   10   58 1
  22   11   12 am
  23   11   13 2
  24   12   14 1
  25   12   18 1
  26   14   15 1
  27   14   59 1
  28   14   60 1
  29   15   16 1
  30   15   61 1
  31   15   62 1
  32   16   17 1
  33   16   19 1
  34   17   18 1
  35   17   63 1
  36   17   64 1
  37   18   65 1
  38   18   66 1
  39   19   20 1
  40   19   24 1
  41   19   67 1
  42   20   21 1
  43   20   68 1
  44   20   69 1
  45   21   22 1
  46   21   70 1
  47   21   71 1
  48   22   23 1
  49   22   25 1
  50   23   24 1
  51   23   72 1
  52   23   73 1
  53   24   74 1
  54   24   75 1
  55   25   43 1
  56   25   44 1
  57   25   76 1
  58   27   50 am
  59   27   29 1
  60   28   29 ar
  61   28   30 ar
  62   29   33 ar
  63   30   31 ar
  64   30   77 1
  65   31   32 ar
  66   32   33 ar
  67   32   34 1
  68   33   78 1
  69   35   36 ar
  70   35   37 ar
  71   35   50 1
  72   36   42 1
  73   36   40 ar
  74   37   38 ar
  75   37   79 1
  76   38   39 ar
  77   38   80 1
  78   39   40 ar
  79   39   41 1
  80   40   81 1
  81   43   82 1
  82   43   83 1
  83   43   84 1
  84   44   85 1
  85   44   86 1
  86   44   87 1
  87   45   46 1
  88   46   47 1
  89   46   88 1
  90   46   89 1
  91   47   48 1
  92   47   49 1
  93   47   90 1
  94   50   51 2
  95   50   52 2

#	End of record

