#	Name: ASD01884366
#	Creating user name:	WinNT
#	Creation time:	15. 06. 2019 19:48

#	Modifying user name:	WinNT
#	Modification time:	15. 06. 2019 19:48

#	Program:	/corina/corina34_cracker 3.40 0067  02.08.2006

@<TRIPOS>MOLECULE
ASD01884366
  48   50    0    0    0
SMALL
NO_CHARGES


@<TRIPOS>ATOM
   1 N1             1.1054     3.5141     2.3218 N.ar    
   2 C2             1.7301     3.4078     3.4791 C.ar    
   3 C3             3.0547     3.0228     3.5356 C.ar    
   4 C4             3.7321     2.7449     2.3561 C.ar    
   5 C5             3.0491     2.8652     1.1586 C.ar    
   6 C6             1.7166     3.2581     1.1771 C.ar    
   7 O7             1.0357     3.3797     0.0099 O.3     
   8 C8             0.9884     3.7111     4.7555 C.3     
   9 C9             5.1785     2.3224     2.3792 C.3     
  10 C10           -0.2296     3.8674     0.0583 C.ar    
  11 C11           -0.4409     5.2283     0.2395 C.ar    
  12 C12           -1.3116     3.0039    -0.0793 C.ar    
  13 C13           -2.5969     3.4936    -0.0313 C.ar    
  14 C14           -2.8161     4.8597     0.1558 C.ar    
  15 C15           -1.7269     5.7273     0.2887 C.ar    
  16 B16           -4.2811     5.4215     0.2110 Du      
  17 F17           -1.9333     7.0500     0.4704 F       
  18 O18           -4.6885     6.7848     0.3948 O.3     
  19 O19           -5.5055     4.6850     0.0824 O.3     
  20 C20           -6.3936     5.2806     1.0516 C.3     
  21 C21           -5.8380     6.7085     1.2640 C.3     
  22 C22           -7.8199     5.3414     0.5011 C.3     
  23 C23           -6.3597     4.4912     2.3617 C.3     
  24 C24           -5.4192     6.9062     2.7222 C.3     
  25 C25           -6.8821     7.7521     0.8618 C.3     
  26 H26            3.5587     2.9390     4.4871 H       
  27 H27            3.5453     2.6572     0.2222 H       
  28 H28            0.5204     2.8002     5.1289 H       
  29 H29            1.6874     4.0920     5.5001 H       
  30 H30            0.2211     4.4602     4.5606 H       
  31 H31            5.2387     1.2364     2.4509 H       
  32 H32            5.6685     2.6538     1.4637 H       
  33 H33            5.6745     2.7714     3.2398 H       
  34 H34            0.4014     5.8964     0.3422 H       
  35 H35           -1.1426     1.9472    -0.2244 H       
  36 H36           -3.4355     2.8216    -0.1387 H       
  37 H37           -8.1750     4.3307     0.2999 H       
  38 H38           -8.4722     5.8166     1.2338 H       
  39 H39           -7.8285     5.9201    -0.4225 H       
  40 H40           -5.3405     4.4715     2.7478 H       
  41 H41           -7.0151     4.9682     3.0904 H       
  42 H42           -6.6993     3.4714     2.1804 H       
  43 H43           -4.6459     6.1824     2.9794 H       
  44 H44           -5.0306     7.9159     2.8549 H       
  45 H45           -6.2829     6.7611     3.3711 H       
  46 H46           -7.7766     7.6248     1.4715 H       
  47 H47           -6.4756     8.7514     1.0172 H       
  48 H48           -7.1380     7.6235    -0.1899 H       
@<TRIPOS>BOND
   1    1    2 ar
   2    1    6 ar
   3    2    3 ar
   4    2    8 1
   5    3    4 ar
   6    3   26 1
   7    4    5 ar
   8    4    9 1
   9    5    6 ar
  10    5   27 1
  11    6    7 1
  12    7   10 1
  13    8   28 1
  14    8   29 1
  15    8   30 1
  16    9   31 1
  17    9   32 1
  18    9   33 1
  19   10   11 ar
  20   10   12 ar
  21   11   15 ar
  22   11   34 1
  23   12   13 ar
  24   12   35 1
  25   13   14 ar
  26   13   36 1
  27   14   15 ar
  28   14   16 1
  29   15   17 1
  30   16   18 1
  31   16   19 1
  32   18   21 1
  33   19   20 1
  34   20   21 1
  35   20   22 1
  36   20   23 1
  37   21   24 1
  38   21   25 1
  39   22   37 1
  40   22   38 1
  41   22   39 1
  42   23   40 1
  43   23   41 1
  44   23   42 1
  45   24   43 1
  46   24   44 1
  47   24   45 1
  48   25   46 1
  49   25   47 1
  50   25   48 1

#	End of record

