#	Name: ASD01900060
#	Creating user name:	WinNT
#	Creation time:	15. 06. 2019 19:51

#	Modifying user name:	WinNT
#	Modification time:	15. 06. 2019 19:51

#	Program:	/corina/corina34_cracker 3.40 0067  02.08.2006

@<TRIPOS>MOLECULE
ASD01900060
  30   32    0    0    0
SMALL
NO_CHARGES


@<TRIPOS>ATOM
   1 C1            -0.0170     1.3989     0.0097 C.ar    
   2 C2             0.0021    -0.0041     0.0020 C.2     
   3 C3             1.3311     1.8222    -0.0009 C.ar    
   4 N4             2.1241     0.6920    -0.0142 N.pl3   
   5 C5             1.3131    -0.4103    -0.0109 C.2     
   6 C6            -1.0403     2.3580     0.0195 C.ar    
   7 C7            -0.7329     3.6855     0.0237 C.ar    
   8 C8             0.5964     4.1060     0.0186 C.ar    
   9 C9             1.6230     3.1807     0.0030 C.ar    
  10 C10            1.6401    -1.8438    -0.0157 C.2     
  11 N11            0.6932    -2.6739    -0.3369 N.2     
  12 C12           -0.6474    -2.2646    -0.7277 C.3     
  13 C13           -1.1222    -1.0066     0.0026 C.3     
  14 C14            3.0213    -2.3320     0.3379 C.3     
  15 O15            0.8844     5.4338     0.0220 O.3     
  16 C16           -0.2224     6.3377     0.0309 C.3     
  17 H17            3.0939     0.6812    -0.0248 H       
  18 H18           -2.0736     2.0438     0.0234 H       
  19 H19           -1.5261     4.4185     0.0305 H       
  20 H20            2.6506     3.5130    -0.0003 H       
  21 H21           -0.6574    -2.0727    -1.8007 H       
  22 H22           -1.3400    -3.0783    -0.5123 H       
  23 H23           -1.3902    -1.2572     1.0290 H       
  24 H24           -1.9875    -0.5882    -0.5115 H       
  25 H25            3.0780    -2.5160     1.4108 H       
  26 H26            3.2289    -3.2565    -0.2008 H       
  27 H27            3.7560    -1.5764     0.0596 H       
  28 H28           -0.8333     6.1728    -0.8567 H       
  29 H29           -0.8244     6.1662     0.9232 H       
  30 H30            0.1462     7.3634     0.0328 H       
@<TRIPOS>BOND
   1    1    2 1
   2    1    3 ar
   3    1    6 ar
   4    2    5 2
   5    2   13 1
   6    3    4 1
   7    3    9 ar
   8    4    5 1
   9    4   17 1
  10    5   10 1
  11    6    7 ar
  12    6   18 1
  13    7    8 ar
  14    7   19 1
  15    8    9 ar
  16    8   15 1
  17    9   20 1
  18   10   11 2
  19   10   14 1
  20   11   12 1
  21   12   13 1
  22   12   21 1
  23   12   22 1
  24   13   23 1
  25   13   24 1
  26   14   25 1
  27   14   26 1
  28   14   27 1
  29   15   16 1
  30   16   28 1
  31   16   29 1
  32   16   30 1

#	End of record

