#	Name: ASD00170146
#	Creating user name:	WinNT
#	Creation time:	15. 06. 2019 18:31

#	Modifying user name:	WinNT
#	Modification time:	15. 06. 2019 18:31

#	Program:	/corina/corina34_cracker 3.40 0067  02.08.2006

@<TRIPOS>MOLECULE
ASD00170146
  23   24    0    0    0
SMALL
NO_CHARGES


@<TRIPOS>ATOM
   1 C1             0.0042     1.3223     0.1979 C.2     
   2 C2             0.0143     0.0004     0.1263 C.2     
   3 C3             1.3489    -0.5570     0.0606 C.2     
   4 C4             2.3288     0.4084     0.0865 C.2     
   5 S5             1.6374     1.9629     0.1888 S.3     
   6 N6             3.6842     0.1534     0.0372 N.pl3   
   7 C7             1.6254    -1.9907    -0.0234 C.2     
   8 C8             0.5189    -2.9656     0.0939 C.ar    
   9 O9             2.7664    -2.3820    -0.1898 O.2     
  10 C10            0.5787    -4.1789    -0.5923 C.ar    
  11 C11           -0.4584    -5.0853    -0.4779 C.ar    
  12 C12           -1.5547    -4.7899     0.3162 C.ar    
  13 C13           -1.6182    -3.5877     0.9980 C.ar    
  14 C14           -0.5866    -2.6776     0.8961 C.ar    
  15 F15           -0.4033    -6.2607    -1.1416 F       
  16 H16           -0.8900     1.9258     0.2502 H       
  17 H17           -0.8824    -0.6014     0.1178 H       
  18 H18            4.0039    -0.7606    -0.0201 H       
  19 H19            4.3171     0.8881     0.0599 H       
  20 H20            1.4330    -4.4091    -1.2116 H       
  21 H21           -2.3631    -5.5007     0.4031 H       
  22 H22           -2.4756    -3.3631     1.6151 H       
  23 H23           -0.6383    -1.7397     1.4292 H       
@<TRIPOS>BOND
   1    1    2 2
   2    1    5 1
   3    1   16 1
   4    2    3 1
   5    2   17 1
   6    3    4 2
   7    3    7 1
   8    4    5 1
   9    4    6 1
  10    6   18 1
  11    6   19 1
  12    7    8 1
  13    7    9 2
  14    8   10 ar
  15    8   14 ar
  16   10   11 ar
  17   10   20 1
  18   11   12 ar
  19   11   15 1
  20   12   13 ar
  21   12   21 1
  22   13   14 ar
  23   13   22 1
  24   14   23 1

#	End of record

