#	Name: ASD01940131
#	Creating user name:	WinNT
#	Creation time:	15. 06. 2019 20:11

#	Modifying user name:	WinNT
#	Modification time:	15. 06. 2019 20:11

#	Program:	/corina/corina34_cracker 3.40 0067  02.08.2006

@<TRIPOS>MOLECULE
ASD01940131
  55   56    0    0    0
SMALL
NO_CHARGES


@<TRIPOS>ATOM
   1 C1            -0.0597     1.1767     0.7977 C.ar    
   2 C2             0.2087    -0.1156     0.3854 C.ar    
   3 C3            -0.7107    -0.8048    -0.3869 C.ar    
   4 C4            -1.9043    -0.2022    -0.7507 C.ar    
   5 C5            -2.1791     1.0953    -0.3396 C.ar    
   6 C6            -1.2545     1.7850     0.4431 C.ar    
   7 N7            -1.5268     3.0944     0.8612 N.am    
   8 S8            -2.8440     3.4014     1.8168 S.o2    
   9 O9            -2.7956     4.8039     2.0403 O.2     
  10 O10           -3.9298     2.8079     1.1182 O.2     
  11 F11           -0.4434    -2.0672    -0.7870 F       
  12 F12           -2.7996    -0.8763    -1.5052 F       
  13 N13           -3.3855     1.7079    -0.7058 N.pl3   
  14 C14           -4.6010     1.0650    -0.4529 C.ar    
  15 C15           -5.8022     1.7288    -0.6827 C.ar    
  16 C16           -4.6126    -0.2391     0.0228 C.ar    
  17 C17           -5.8155    -0.8718     0.2719 C.ar    
  18 C18           -7.0075    -0.2086     0.0479 C.ar    
  19 C19           -7.0016     1.0892    -0.4311 C.ar    
  20 F20           -5.7963     2.9962    -1.1504 F       
  21 C21           -8.3169    -0.9031     0.3206 C.3     
  22 C22           -2.5076     2.4999     3.3546 C.3     
  23 C23           -3.7019     2.6412     4.3003 C.3     
  24 C24            0.9444     1.9226     1.6382 C.3     
  25 C25            0.6948     1.6221     3.1175 C.3     
  26 C26           -3.3710     1.9835     5.6415 C.3     
  27 C27           -4.5654     2.1248     6.5873 C.3     
  28 O28           -5.6740     1.3877     6.0681 O.3     
  29 C29           -4.1910     1.5789     7.9667 C.3     
  30 O30           -5.2640     1.8162     8.8802 O.3     
  31 H31            1.1381    -0.5884     0.6663 H       
  32 H32           -0.9438     3.8210     0.5910 H       
  33 H33           -3.3770     2.5779    -1.1348 H       
  34 H34           -3.6822    -0.7589     0.1977 H       
  35 H35           -5.8245    -1.8864     0.6420 H       
  36 H36           -7.9347     1.6045    -0.6050 H       
  37 H37           -8.6182    -0.7185     1.3517 H       
  38 H38           -9.0802    -0.5178    -0.3555 H       
  39 H39           -8.1993    -1.9751     0.1628 H       
  40 H40           -2.3450     1.4458     3.1296 H       
  41 H41           -1.6172     2.9115     3.8297 H       
  42 H42           -3.9180     3.6980     4.4574 H       
  43 H43           -4.5725     2.1537     3.8616 H       
  44 H44            1.9516     1.6054     1.3679 H       
  45 H45            0.8413     2.9934     1.4626 H       
  46 H46           -0.3467     1.8330     3.3604 H       
  47 H47            0.9087     0.5719     3.3160 H       
  48 H48            1.3445     2.2473     3.7299 H       
  49 H49           -3.1550     0.9267     5.4845 H       
  50 H50           -2.5005     2.4710     6.0803 H       
  51 H51           -4.8373     3.1768     6.6744 H       
  52 H52           -5.5030     0.4416     5.9637 H       
  53 H53           -4.0051     0.5072     7.8951 H       
  54 H54           -3.2918     2.0805     8.3242 H       
  55 H55           -5.0956     1.4953     9.7767 H       
@<TRIPOS>BOND
   1    1    2 ar
   2    1   24 1
   3    1    6 ar
   4    2    3 ar
   5    2   31 1
   6    3    4 ar
   7    3   11 1
   8    4    5 ar
   9    4   12 1
  10    5    6 ar
  11    5   13 1
  12    6    7 1
  13    7    8 am
  14    7   32 1
  15    8    9 2
  16    8   10 2
  17    8   22 1
  18   13   14 1
  19   13   33 1
  20   14   15 ar
  21   14   16 ar
  22   15   20 1
  23   15   19 ar
  24   16   17 ar
  25   16   34 1
  26   17   18 ar
  27   17   35 1
  28   18   19 ar
  29   18   21 1
  30   19   36 1
  31   21   37 1
  32   21   38 1
  33   21   39 1
  34   22   23 1
  35   22   40 1
  36   22   41 1
  37   23   26 1
  38   23   42 1
  39   23   43 1
  40   24   25 1
  41   24   44 1
  42   24   45 1
  43   25   46 1
  44   25   47 1
  45   25   48 1
  46   26   27 1
  47   26   49 1
  48   26   50 1
  49   27   28 1
  50   27   29 1
  51   27   51 1
  52   28   52 1
  53   29   30 1
  54   29   53 1
  55   29   54 1
  56   30   55 1

#	End of record

