#	Name: ASD00311217
#	Creating user name:	WinNT
#	Creation time:	15. 06. 2019 18:34

#	Modifying user name:	WinNT
#	Modification time:	15. 06. 2019 18:34

#	Program:	/corina/corina34_cracker 3.40 0067  02.08.2006

@<TRIPOS>MOLECULE
ASD00311217
  42   45    0    0    0
SMALL
NO_CHARGES


@<TRIPOS>ATOM
   1 C1            -0.0167     1.3778     0.0096 C.2     
   2 C2             0.0021    -0.0041     0.0020 C.2     
   3 C3             1.2589    -0.6767    -0.0131 C.2     
   4 C4             2.4316     0.0673    -0.0199 C.2     
   5 C5             2.3574     1.4753    -0.0117 C.2     
   6 N6             1.1648     2.0904     0.0022 N.am    
   7 C7            -1.3431    -0.5750     0.0118 C.2     
   8 C8            -2.3224     0.3257     0.0260 C.2     
   9 S9            -1.6794     1.9560     0.0358 S.3     
  10 O10            3.3822     2.1374    -0.0175 O.2     
  11 C11           -3.7911    -0.0117     0.0377 C.3     
  12 O12            1.3089    -2.0291    -0.0204 O.3     
  13 C13            3.7477    -0.6119    -0.0352 C.ar    
  14 C14            4.5939    -0.4744    -1.1354 C.ar    
  15 C15            5.8190    -1.1093    -1.1435 C.ar    
  16 C16            6.2086    -1.8808    -0.0633 C.ar    
  17 C17            5.3735    -2.0214     1.0307 C.ar    
  18 C18            4.1484    -1.3868     1.0531 C.ar    
  19 C19           -1.5955    -2.0355     0.0063 C.ar    
  20 C20           -2.2065    -2.6442     1.1019 C.ar    
  21 C21           -2.4393    -4.0043     1.0909 C.ar    
  22 C22           -2.0679    -4.7636    -0.0042 C.ar    
  23 C23           -1.4614    -4.1652    -1.0941 C.ar    
  24 C24           -1.2282    -2.8051    -1.0968 C.ar    
  25 C25            1.1161     3.5546     0.0100 C.3     
  26 H26           -4.1356    -0.0989     1.0682 H       
  27 H27           -4.3492     0.7772    -0.4665 H       
  28 H28           -3.9507    -0.9576    -0.4800 H       
  29 H29            2.2062    -2.3895    -0.0307 H       
  30 H30            4.2907     0.1274    -1.9794 H       
  31 H31            6.4749    -1.0039    -1.9950 H       
  32 H32            7.1684    -2.3758    -0.0742 H       
  33 H33            5.6829    -2.6253     1.8709 H       
  34 H34            3.4994    -1.4933     1.9097 H       
  35 H35           -2.4965    -2.0525     1.9576 H       
  36 H36           -2.9122    -4.4770     1.9391 H       
  37 H37           -2.2518    -5.8278    -0.0082 H       
  38 H38           -1.1733    -4.7631    -1.9461 H       
  39 H39           -0.7583    -2.3384    -1.9499 H       
  40 H40            1.1136     3.9125     1.0395 H       
  41 H41            1.9887     3.9499    -0.5100 H       
  42 H42            0.2098     3.8906    -0.4937 H       
@<TRIPOS>BOND
   1    1    2 2
   2    1    6 1
   3    1    9 1
   4    2    3 1
   5    2    7 1
   6    3    4 2
   7    3   12 1
   8    4    5 1
   9    4   13 1
  10    5    6 am
  11    5   10 2
  12    6   25 1
  13    7    8 2
  14    7   19 1
  15    8    9 1
  16    8   11 1
  17   11   26 1
  18   11   27 1
  19   11   28 1
  20   12   29 1
  21   13   14 ar
  22   13   18 ar
  23   14   15 ar
  24   14   30 1
  25   15   16 ar
  26   15   31 1
  27   16   17 ar
  28   16   32 1
  29   17   18 ar
  30   17   33 1
  31   18   34 1
  32   19   20 ar
  33   19   24 ar
  34   20   21 ar
  35   20   35 1
  36   21   22 ar
  37   21   36 1
  38   22   23 ar
  39   22   37 1
  40   23   24 ar
  41   23   38 1
  42   24   39 1
  43   25   40 1
  44   25   41 1
  45   25   42 1

#	End of record

