#	Name: ASD01001155
#	Creating user name:	WinNT
#	Creation time:	15. 06. 2019 18:55

#	Modifying user name:	WinNT
#	Modification time:	15. 06. 2019 18:55

#	Program:	/corina/corina34_cracker 3.40 0067  02.08.2006

@<TRIPOS>MOLECULE
ASD01001155
  45   48    0    0    0
SMALL
NO_CHARGES


@<TRIPOS>ATOM
   1 C1            -0.0184     1.5043     0.0103 C.3     
   2 C2             0.0021    -0.0041     0.0020 C.ar    
   3 C3             1.4093     2.0450    -0.0004 C.3     
   4 C4             1.1169    -0.7133     0.4213 C.ar    
   5 C5            -1.1208    -0.6861    -0.4334 C.ar    
   6 C6             2.2045     1.3900     1.1324 C.3     
   7 C7             1.0999    -2.1039     0.4076 C.ar    
   8 N8             2.2714    -0.0521     0.8549 N.pl3   
   9 C9             3.5961     1.9664     1.1795 C.ar    
  10 C10           -0.0244    -2.7771    -0.0269 C.ar    
  11 C11           -1.1344    -2.0679    -0.4473 C.ar    
  12 C12            3.9085     2.9433     2.1062 C.ar    
  13 C13            4.5617     1.5142     0.2997 C.ar    
  14 C14            5.1850     3.4721     2.1494 C.ar    
  15 C15            5.8382     2.0429     0.3429 C.ar    
  16 C16            6.1492     3.0236     1.2661 C.ar    
  17 O17           -0.6985     1.9453     1.1880 O.3     
  18 C18            1.4094     3.5624     0.1637 C.3     
  19 C19           -0.7821     3.3636     1.3299 C.3     
  20 C20            0.6331     3.9417     1.4283 C.3     
  21 C21           -2.2603    -3.0435    -2.4296 C.3     
  22 C22           -2.3612    -2.8031    -0.9219 C.3     
  23 H23           -0.5496     1.8649    -0.8705 H       
  24 H24            1.8776     1.8019    -0.9542 H       
  25 H25           -1.9898    -0.1362    -0.7633 H       
  26 H26            1.7008     1.5601     2.0839 H       
  27 H27            1.9669    -2.6575     0.7366 H       
  28 H28            3.1030    -0.5378     0.9707 H       
  29 H29           -0.0371    -3.8569    -0.0380 H       
  30 H30            3.1553     3.2937     2.7963 H       
  31 H31            4.3189     0.7475    -0.4212 H       
  32 H32            5.4289     4.2359     2.8730 H       
  33 H33            6.5927     1.6893    -0.3442 H       
  34 H34            7.1465     3.4367     1.2999 H       
  35 H35            2.4362     3.9185     0.2476 H       
  36 H36            0.9361     4.0215    -0.7042 H       
  37 H37           -1.2894     3.7873     0.4632 H       
  38 H38           -1.3390     3.6072     2.2347 H       
  39 H39            1.1361     3.5297     2.3031 H       
  40 H40            0.5795     5.0271     1.5124 H       
  41 H41           -2.1879    -2.0864    -2.9461 H       
  42 H42           -1.3736    -3.6401    -2.6439 H       
  43 H43           -3.1477    -3.5753    -2.7729 H       
  44 H44           -2.4337    -3.7603    -0.4055 H       
  45 H45           -3.2479    -2.2066    -0.7077 H       
@<TRIPOS>BOND
   1    1    2 1
   2    1    3 1
   3    1   17 1
   4    1   23 1
   5    2    4 ar
   6    2    5 ar
   7    3    6 1
   8    3   18 1
   9    3   24 1
  10    4    7 ar
  11    4    8 1
  12    5   11 ar
  13    5   25 1
  14    6    8 1
  15    6    9 1
  16    6   26 1
  17    7   10 ar
  18    7   27 1
  19    8   28 1
  20    9   12 ar
  21    9   13 ar
  22   10   11 ar
  23   10   29 1
  24   11   22 1
  25   12   14 ar
  26   12   30 1
  27   13   15 ar
  28   13   31 1
  29   14   16 ar
  30   14   32 1
  31   15   16 ar
  32   15   33 1
  33   16   34 1
  34   17   19 1
  35   18   20 1
  36   18   35 1
  37   18   36 1
  38   19   20 1
  39   19   37 1
  40   19   38 1
  41   20   39 1
  42   20   40 1
  43   21   22 1
  44   21   41 1
  45   21   42 1
  46   21   43 1
  47   22   44 1
  48   22   45 1

#	End of record

