#	Name: ASD03320209
#	Creating user name:	WinNT
#	Creation time:	15. 06. 2019 20:36

#	Modifying user name:	WinNT
#	Modification time:	15. 06. 2019 20:36

#	Program:	/corina/corina34_cracker 3.40 0067  02.08.2006

@<TRIPOS>MOLECULE
ASD03320209
  36   38    0    0    0
SMALL
NO_CHARGES


@<TRIPOS>ATOM
   1 C1            -0.0166     1.3393    -0.2089 C.ar    
   2 C2             0.0224    -0.0351     0.0337 C.ar    
   3 N3            -1.0852    -0.7474     0.0684 N.ar    
   4 C4            -2.2719    -0.2046    -0.1221 C.ar    
   5 C5            -2.4023     1.1650    -0.3717 C.ar    
   6 C6            -1.2543     1.9584    -0.4107 C.ar    
   7 C7             1.2316     2.1296    -0.2458 C.2     
   8 O8             1.1875     3.3259    -0.4578 O.2     
   9 N9             2.4187     1.5241    -0.0444 N.am    
  10 C10            3.6074     2.2532    -0.1735 C.ar    
  11 C11           -3.7371     1.7653    -0.5852 C.2     
  12 C12            3.6538     3.5825     0.2254 C.ar    
  13 C13            4.8262     4.3007     0.0977 C.ar    
  14 C14            5.9575     3.6947    -0.4288 C.ar    
  15 C15            5.9119     2.3667    -0.8276 C.ar    
  16 C16            4.7418     1.6456    -0.6952 C.ar    
  17 O17            7.1115     4.4027    -0.5546 O.3     
  18 C18            8.2374     3.7158    -1.1047 C.3     
  19 F19            7.9274     3.2700    -2.3940 F       
  20 F20            9.3316     4.5855    -1.1625 F       
  21 F21            8.5553     2.6193    -0.2961 F       
  22 N22           -4.0000     3.0955    -0.7348 N.pl3   
  23 C23           -5.3524     3.2193    -0.9081 C.2     
  24 C24           -5.8722     1.9760    -0.8600 C.2     
  25 N25           -4.8722     1.1077    -0.6688 N.2     
  26 Cl26          -3.6904    -1.2035    -0.0626 Cl      
  27 H27            0.9734    -0.5209     0.1949 H       
  28 H28           -1.3195     3.0195    -0.6007 H       
  29 H29            2.4498     0.5834     0.1899 H       
  30 H30            2.7730     4.0546     0.6350 H       
  31 H31            4.8623     5.3347     0.4076 H       
  32 H32            6.7930     1.8956    -1.2374 H       
  33 H33            4.7064     0.6118    -1.0057 H       
  34 H34           -3.3517     3.8169    -0.7206 H       
  35 H35           -5.8995     4.1388    -1.0550 H       
  36 H36           -6.9172     1.7236    -0.9630 H       
@<TRIPOS>BOND
   1    1    2 ar
   2    1    7 1
   3    1    6 ar
   4    2    3 ar
   5    2   27 1
   6    3    4 ar
   7    4    5 ar
   8    4   26 1
   9    5    6 ar
  10    5   11 1
  11    6   28 1
  12    7    8 2
  13    7    9 am
  14    9   10 1
  15    9   29 1
  16   10   12 ar
  17   10   16 ar
  18   11   25 2
  19   11   22 1
  20   12   13 ar
  21   12   30 1
  22   13   14 ar
  23   13   31 1
  24   14   15 ar
  25   14   17 1
  26   15   16 ar
  27   15   32 1
  28   16   33 1
  29   17   18 1
  30   18   19 1
  31   18   20 1
  32   18   21 1
  33   22   23 1
  34   22   34 1
  35   23   24 2
  36   23   35 1
  37   24   25 1
  38   24   36 1

#	End of record

