#	Name: ASD04550052
#	Creating user name:	WinNT
#	Creation time:	15. 06. 2019 20:49

#	Modifying user name:	WinNT
#	Modification time:	15. 06. 2019 20:49

#	Program:	/corina/corina34_cracker 3.40 0067  02.08.2006

@<TRIPOS>MOLECULE
ASD04550052
  28   28    0    0    0
SMALL
NO_CHARGES


@<TRIPOS>ATOM
   1 C1            -0.0167     1.3831     0.0096 C.ar    
   2 C2             0.0021    -0.0041     0.0020 C.ar    
   3 C3             1.2141    -0.6789    -0.0132 C.ar    
   4 C4             2.3989     0.0314    -0.0207 C.ar    
   5 C5             2.3774     1.4139    -0.0126 C.ar    
   6 C6             1.1708     2.0889     0.0021 C.ar    
   7 C7             3.6714     2.1863    -0.0198 C.3     
   8 C8             3.7284     3.0742    -1.2645 C.3     
   9 O9            -1.1648    -0.7006     0.0099 O.3     
  10 S10           -1.7101    -1.0105    -1.3769 S.o2    
  11 C11           -0.6479    -2.3457    -1.9931 C.3     
  12 O12           -3.0259    -1.4906    -1.1368 O.2     
  13 O13           -1.4892     0.1834    -2.1151 O.2     
  14 C14            3.7497     3.0468     1.2149 C.2     
  15 O15            2.8473     3.0341     2.0184 O.2     
  16 O16            4.8218     3.8273     1.4222 O.3     
  17 H17           -0.9590     1.9108     0.0170 H       
  18 H18            1.2314    -1.7588    -0.0188 H       
  19 H19            3.3426    -0.4935    -0.0325 H       
  20 H20            1.1567     3.1688     0.0084 H       
  21 H21            4.5100     1.4902    -0.0313 H       
  22 H22            3.6718     2.4518    -2.1576 H       
  23 H23            2.8898     3.7703    -1.2530 H       
  24 H24            4.6643     3.6329    -1.2698 H       
  25 H25           -0.7203    -3.2047    -1.3261 H       
  26 H26           -0.9705    -2.6342    -2.9935 H       
  27 H27            0.3853    -2.0003    -2.0299 H       
  28 H28            4.8268     4.3613     2.2283 H       
@<TRIPOS>BOND
   1    1    2 ar
   2    1    6 ar
   3    1   17 1
   4    2    3 ar
   5    2    9 1
   6    3    4 ar
   7    3   18 1
   8    4    5 ar
   9    4   19 1
  10    5    6 ar
  11    5    7 1
  12    6   20 1
  13    7    8 1
  14    7   14 1
  15    7   21 1
  16    8   22 1
  17    8   23 1
  18    8   24 1
  19    9   10 1
  20   10   11 1
  21   10   12 2
  22   10   13 2
  23   11   25 1
  24   11   26 1
  25   11   27 1
  26   14   15 2
  27   14   16 1
  28   16   28 1

#	End of record

