#	Name: ASD07301075
#	Creating user name:	WinNT
#	Creation time:	15. 06. 2019 21:10

#	Modifying user name:	WinNT
#	Modification time:	15. 06. 2019 21:10

#	Program:	/corina/corina34_cracker 3.40 0067  02.08.2006

@<TRIPOS>MOLECULE
ASD07301075
  31   31    0    0    0
SMALL
NO_CHARGES


@<TRIPOS>ATOM
   1 C1            -0.5382     0.5496     1.2999 C.3     
   2 C2             0.0024    -0.0038     0.0067 C.2     
   3 C3             1.3287    -0.6206    -0.0274 C.2     
   4 C4             1.4652    -2.0704     0.1150 C.2     
   5 C5             2.8313    -2.7057     0.0800 C.3     
   6 O6            -0.6623     0.0621    -1.0066 O.2     
   7 O7             0.4782    -2.7614     0.2613 O.2     
   8 N8             2.4060     0.1335    -0.1871 N.2     
   9 N9             2.2808     1.3968    -0.4156 N.pl3   
  10 C10            3.4087     2.1716    -0.6887 C.ar    
  11 C11            3.2745     3.5358    -0.9355 C.ar    
  12 C12            4.3931     4.3008    -1.2053 C.ar    
  13 C13            5.6486     3.7097    -1.2304 C.ar    
  14 C14            5.7825     2.3503    -0.9849 C.ar    
  15 C15            4.6679     1.5841    -0.7090 C.ar    
  16 O16            6.7482     4.4630    -1.4963 O.3     
  17 C17            8.0087     3.7899    -1.5063 C.3     
  18 F18            7.9945     2.7878    -2.4824 F       
  19 F19            9.0249     4.7072    -1.7943 F       
  20 F20            8.2407     3.2157    -0.2518 F       
  21 F21            2.0520     4.1103    -0.9117 F       
  22 H22            0.1544     0.3222     2.1102 H       
  23 H23           -0.6534     1.6300     1.2128 H       
  24 H24           -1.5068     0.0970     1.5121 H       
  25 H25            3.5878    -1.9332    -0.0578 H       
  26 H26            3.0129    -3.2289     1.0188 H       
  27 H27            2.8812    -3.4146    -0.7465 H       
  28 H28            1.4025     1.8083    -0.3976 H       
  29 H29            4.2904     5.3587    -1.3968 H       
  30 H30            6.7603     1.8923    -1.0053 H       
  31 H31            4.7740     0.5273    -0.5134 H       
@<TRIPOS>BOND
   1    1    2 1
   2    1   22 1
   3    1   23 1
   4    1   24 1
   5    2    3 1
   6    2    6 2
   7    3    4 1
   8    3    8 2
   9    4    5 1
  10    4    7 2
  11    5   25 1
  12    5   26 1
  13    5   27 1
  14    8    9 1
  15    9   10 1
  16    9   28 1
  17   10   11 ar
  18   10   15 ar
  19   11   12 ar
  20   11   21 1
  21   12   13 ar
  22   12   29 1
  23   13   14 ar
  24   13   16 1
  25   14   15 ar
  26   14   30 1
  27   15   31 1
  28   16   17 1
  29   17   18 1
  30   17   19 1
  31   17   20 1

#	End of record

