#	Name: ASD06020125
#	Creating user name:	WinNT
#	Creation time:	15. 06. 2019 21:04

#	Modifying user name:	WinNT
#	Modification time:	15. 06. 2019 21:04

#	Program:	/corina/corina34_cracker 3.40 0067  02.08.2006

@<TRIPOS>MOLECULE
ASD06020125
  35   38    0    0    0
SMALL
NO_CHARGES


@<TRIPOS>ATOM
   1 C1            -0.0187     1.5258     0.0104 C.3     
   2 C2             0.0021    -0.0041     0.0020 C.3     
   3 C3             1.3165     0.7789    -0.0063 C.3     
   4 C4            -0.4420     2.2229    -1.2568 C.2     
   5 O5            -0.7498     1.5723    -2.2330 O.2     
   6 N6            -0.4784     3.5693    -1.3053 N.am    
   7 C7            -0.8703     4.2147    -2.4785 C.ar    
   8 C8            -0.9067     5.6122    -2.5242 C.ar    
   9 C9            -1.3003     6.2546    -3.7045 C.ar    
  10 C10           -1.6457     5.4274    -4.8049 C.ar    
  11 C11           -1.5820     4.0743    -4.6722 C.ar    
  12 N12           -1.1995     3.5025    -3.5408 N.ar    
  13 S13           -0.5337     6.8426    -1.3221 S.3     
  14 C14           -0.9291     8.1068    -2.4795 C.2     
  15 N15           -1.2881     7.5842    -3.6066 N.2     
  16 F16           -2.0352     5.9789    -5.9751 F       
  17 C17           -0.8612     9.5561    -2.2036 C.ar    
  18 C18           -0.4601    10.0140    -0.9486 C.ar    
  19 C19           -0.3985    11.3710    -0.6962 C.ar    
  20 C20           -0.7330    12.2839    -1.6823 C.ar    
  21 C21           -1.1327    11.8507    -2.9302 C.ar    
  22 C22           -1.1956    10.4853    -3.2076 C.ar    
  23 C23           -1.6031    10.0311    -4.5031 C.1     
  24 N24           -1.9265     9.6708    -5.5308 N.1     
  25 Cl25          -0.0388     8.8793     0.2959 Cl      
  26 H26           -0.3072     2.0201     0.9381 H       
  27 H27           -0.2728    -0.5162     0.9241 H       
  28 H28           -0.2904    -0.5063    -0.9201 H       
  29 H29            1.8888     0.7918    -0.9339 H       
  30 H30            1.9064     0.7818     0.9103 H       
  31 H31           -0.2322     4.0896    -0.5246 H       
  32 H32           -1.8465     3.4505    -5.5132 H       
  33 H33           -0.0879    11.7222     0.2767 H       
  34 H34           -0.6810    13.3422    -1.4733 H       
  35 H35           -1.3925    12.5693    -3.6935 H       
@<TRIPOS>BOND
   1    1    2 1
   2    1    3 1
   3    1    4 1
   4    1   26 1
   5    2    3 1
   6    2   27 1
   7    2   28 1
   8    3   29 1
   9    3   30 1
  10    4    5 2
  11    4    6 am
  12    6    7 1
  13    6   31 1
  14    7    8 ar
  15    7   12 ar
  16    8    9 ar
  17    8   13 1
  18    9   10 ar
  19    9   15 1
  20   10   11 ar
  21   10   16 1
  22   11   12 ar
  23   11   32 1
  24   13   14 1
  25   14   15 2
  26   14   17 1
  27   17   18 ar
  28   17   22 ar
  29   18   19 ar
  30   18   25 1
  31   19   20 ar
  32   19   33 1
  33   20   21 ar
  34   20   34 1
  35   21   22 ar
  36   21   35 1
  37   22   23 1
  38   23   24 3

#	End of record

