#	Name: ASD02440071
#	Creating user name:	WinNT
#	Creation time:	15. 06. 2019 20:21

#	Modifying user name:	WinNT
#	Modification time:	15. 06. 2019 20:21

#	Program:	/corina/corina34_cracker 3.40 0067  02.08.2006

@<TRIPOS>MOLECULE
ASD02440071
  51   54    0    0    0
SMALL
NO_CHARGES


@<TRIPOS>ATOM
   1 N1             0.0479     1.4625     0.6875 N.am    
   2 C2             0.0533     0.1365     0.8652 C.2     
   3 S3             1.7200    -0.4109     0.6140 S.3     
   4 C4             2.3522     1.2119     0.2720 C.2     
   5 C5             1.1752     2.0842     0.3840 C.2     
   6 O6            -0.9032    -0.5603     1.1460 O.2     
   7 C7            -1.1989     2.2197     0.8224 C.3     
   8 C8            -1.3633     2.6663     2.2522 C.ar    
   9 O9             1.2329     3.2871     0.2102 O.2     
  10 C10            3.6272     1.5651    -0.0242 C.2     
  11 C11            4.7063     0.5711     0.0706 C.ar    
  12 C12            5.9063     0.7684    -0.6214 C.ar    
  13 C13            6.9156    -0.1671    -0.5292 C.ar    
  14 C14            6.7460    -1.3006     0.2448 C.ar    
  15 C15            5.5587    -1.5065     0.9359 C.ar    
  16 C16            4.5403    -0.5732     0.8575 C.ar    
  17 C17           -2.1774     2.2556     4.4666 C.ar    
  18 C18           -2.0230     1.8527     3.1563 C.ar    
  19 C19           -0.8488     3.8856     2.6563 C.ar    
  20 C20           -0.9957     4.3006     3.9637 C.ar    
  21 C21           -1.6653     3.4871     4.8799 C.ar    
  22 C22           -1.8273     3.9253     6.2813 C.2     
  23 O23           -2.4070     3.2138     7.0770 O.2     
  24 O24           -1.3321     5.1140     6.6768 O.3     
  25 O25            5.3995    -2.6229     1.6945 O.3     
  26 C26            6.4937    -3.5411     1.7350 C.3     
  27 C27            6.1373    -4.7086     2.6188 C.ar    
  28 C28            5.5233    -5.8227     2.0778 C.ar    
  29 C29            5.1963    -6.8936     2.8884 C.ar    
  30 C30            5.4837    -6.8506     4.2399 C.ar    
  31 C31            6.0985    -5.7368     4.7807 C.ar    
  32 C32            6.4294    -4.6677     3.9693 C.ar    
  33 H33           -1.1661     3.0927     0.1705 H       
  34 H34           -2.0405     1.5870     0.5403 H       
  35 H35            3.8501     2.5767    -0.3298 H       
  36 H36            6.0420     1.6521    -1.2273 H       
  37 H37            7.8415    -0.0140    -1.0637 H       
  38 H38            7.5403    -2.0294     0.3118 H       
  39 H39            3.6170    -0.7322     1.3948 H       
  40 H40           -2.6932     1.6199     5.1711 H       
  41 H41           -2.4183     0.9003     2.8354 H       
  42 H42           -0.3308     4.5136     1.9467 H       
  43 H43           -0.5934     5.2523     4.2779 H       
  44 H44           -1.4626     5.3576     7.6035 H       
  45 H45            6.7050    -3.8993     0.7275 H       
  46 H46            7.3749    -3.0389     2.1344 H       
  47 H47            5.2988    -5.8564     1.0220 H       
  48 H48            4.7159    -7.7638     2.4660 H       
  49 H49            5.2276    -7.6870     4.8734 H       
  50 H50            6.3227    -5.7031     5.8366 H       
  51 H51            6.9131    -3.7991     4.3911 H       
@<TRIPOS>BOND
   1    1    2 am
   2    1    5 am
   3    1    7 1
   4    2    3 1
   5    2    6 2
   6    3    4 1
   7    4    5 1
   8    4   10 2
   9    5    9 2
  10    7    8 1
  11    7   33 1
  12    7   34 1
  13    8   19 ar
  14    8   18 ar
  15   10   11 1
  16   10   35 1
  17   11   12 ar
  18   11   16 ar
  19   12   13 ar
  20   12   36 1
  21   13   14 ar
  22   13   37 1
  23   14   15 ar
  24   14   38 1
  25   15   16 ar
  26   15   25 1
  27   16   39 1
  28   17   18 ar
  29   17   21 ar
  30   17   40 1
  31   18   41 1
  32   19   20 ar
  33   19   42 1
  34   20   21 ar
  35   20   43 1
  36   21   22 1
  37   22   23 2
  38   22   24 1
  39   24   44 1
  40   25   26 1
  41   26   27 1
  42   26   45 1
  43   26   46 1
  44   27   28 ar
  45   27   32 ar
  46   28   29 ar
  47   28   47 1
  48   29   30 ar
  49   29   48 1
  50   30   31 ar
  51   30   49 1
  52   31   32 ar
  53   31   50 1
  54   32   51 1

#	End of record

