#	Name: ASD01882997
#	Creating user name:	WinNT
#	Creation time:	15. 06. 2019 19:45

#	Modifying user name:	WinNT
#	Modification time:	15. 06. 2019 19:45

#	Program:	/corina/corina34_cracker 3.40 0067  02.08.2006

@<TRIPOS>MOLECULE
ASD01882997
  48   50    0    0    0
SMALL
NO_CHARGES


@<TRIPOS>ATOM
   1 C1            -0.3890     0.7906    -1.0592 C.2     
   2 C2            -0.2379    -0.5455    -0.6455 C.2     
   3 C3            -1.3942    -1.3066    -0.3813 C.2     
   4 C4            -2.6172    -0.7494    -0.5272 C.2     
   5 N5            -2.7638     0.5402    -0.9270 N.am    
   6 C6            -1.6971     1.3184    -1.1878 C.2     
   7 C7            -4.1109     1.0979    -1.0707 C.3     
   8 C8            -4.5485     1.7223     0.2557 C.3     
   9 C9             0.7569     1.6024    -1.3391 C.1     
  10 N10            1.6659     2.2465    -1.5612 N.1     
  11 O11           -1.8569     2.4734    -1.5442 O.2     
  12 C12           -5.9553     2.3048     0.1056 C.3     
  13 C13            1.1055    -1.1387    -0.4916 C.ar    
  14 C14           -6.3930     2.9292     1.4321 C.3     
  15 C15            1.5882    -2.0406    -1.4467 C.ar    
  16 C16            2.8450    -2.5921    -1.2975 C.ar    
  17 C17            3.6279    -2.2529    -0.2020 C.ar    
  18 C18            3.1507    -1.3569     0.7486 C.ar    
  19 C19            1.9012    -0.7969     0.6052 C.ar    
  20 O20            4.8629    -2.7979    -0.0582 O.3     
  21 C21            5.8660    -2.3163    -0.8345 C.ar    
  22 F22            0.8259    -2.3711    -2.5119 F       
  23 C23            7.1166    -2.9193    -0.7949 C.ar    
  24 C24            8.1314    -2.4182    -1.5918 C.ar    
  25 C25            7.8576    -1.3266    -2.4039 C.ar    
  26 C26            6.5906    -0.7771    -2.3927 C.ar    
  27 N27            5.6421    -1.2802    -1.6261 N.ar    
  28 C28            7.3654    -4.1029     0.1042 C.3     
  29 F29            8.6919    -4.5245    -0.0364 F       
  30 F30            7.1311    -3.7360     1.4337 F       
  31 F31            6.5042    -5.1469    -0.2502 F       
  32 H32           -1.3033    -2.3346    -0.0628 H       
  33 H33           -3.4962    -1.3424    -0.3218 H       
  34 H34           -4.1067     1.8619    -1.8481 H       
  35 H35           -4.8054     0.3040    -1.3452 H       
  36 H36           -4.5526     0.9583     1.0331 H       
  37 H37           -3.8539     2.5163     0.5302 H       
  38 H38           -5.9512     3.0688    -0.6718 H       
  39 H39           -6.6499     1.5109    -0.1689 H       
  40 H40           -6.3971     2.1652     2.2095 H       
  41 H41           -5.6984     3.7232     1.7066 H       
  42 H42           -7.3952     3.3442     1.3251 H       
  43 H43            3.2195    -3.2883    -2.0333 H       
  44 H44            3.7635    -1.0966     1.5990 H       
  45 H45            1.5326    -0.1014     1.3446 H       
  46 H46            9.1140    -2.8664    -1.5816 H       
  47 H47            8.6271    -0.9111    -3.0375 H       
  48 H48            6.3723     0.0725    -3.0227 H       
@<TRIPOS>BOND
   1    1    2 2
   2    1    9 1
   3    1    6 1
   4    2    3 1
   5    2   13 1
   6    3    4 2
   7    3   32 1
   8    4    5 1
   9    4   33 1
  10    5    7 1
  11    5    6 am
  12    6   11 2
  13    7    8 1
  14    7   34 1
  15    7   35 1
  16    8   12 1
  17    8   36 1
  18    8   37 1
  19    9   10 3
  20   12   14 1
  21   12   38 1
  22   12   39 1
  23   13   15 ar
  24   13   19 ar
  25   14   40 1
  26   14   41 1
  27   14   42 1
  28   15   16 ar
  29   15   22 1
  30   16   17 ar
  31   16   43 1
  32   17   18 ar
  33   17   20 1
  34   18   19 ar
  35   18   44 1
  36   19   45 1
  37   20   21 1
  38   21   23 ar
  39   21   27 ar
  40   23   28 1
  41   23   24 ar
  42   24   25 ar
  43   24   46 1
  44   25   26 ar
  45   25   47 1
  46   26   27 ar
  47   26   48 1
  48   28   29 1
  49   28   30 1
  50   28   31 1

#	End of record

