#	Name: ASD05740040
#	Creating user name:	WinNT
#	Creation time:	15. 06. 2019 21:02

#	Modifying user name:	WinNT
#	Modification time:	15. 06. 2019 21:02

#	Program:	/corina/corina34_cracker 3.40 0067  02.08.2006

@<TRIPOS>MOLECULE
ASD05740040
  45   48    0    0    0
SMALL
NO_CHARGES


@<TRIPOS>ATOM
   1 C1             0.1634     1.7249    -0.0915 C.3     
   2 C2             1.1875     0.3896     3.5520 C.ar    
   3 C3             4.1012     0.4141     5.3378 C.3     
   4 C4             3.8744    -1.2187     7.2587 C.2     
   5 C5             3.1393    -1.7817     8.2881 C.2     
   6 C6             3.3070    -0.2036     6.4598 C.2     
   7 C7             2.0345     0.2131     6.7118 C.2     
   8 C8             1.3153    -0.3782     7.7629 C.2     
   9 O9             1.8672    -1.3403     8.5129 O.3     
  10 C10            1.4066     1.2962     5.8728 C.3     
  11 C11            0.5959     0.6693     4.7679 C.ar    
  12 C12           -0.7397     0.3743     4.9731 C.ar    
  13 O13            0.1759    -0.0112     7.9954 O.2     
  14 C14            0.4395    -0.1888     2.5341 C.ar    
  15 C15           -0.9015    -0.4838     2.7435 C.ar    
  16 C16           -1.4870    -0.2014     3.9622 C.ar    
  17 N17            1.0346    -0.4727     1.3027 N.am    
  18 S18            0.2509    -0.0869    -0.1042 S.o2    
  19 O19           -1.0447    -0.6498     0.0507 O.2     
  20 O20            1.1274    -0.5367    -1.1282 O.2     
  21 C21            3.8421    -2.7686     8.9804 C.2     
  22 C22            5.0812    -3.0078     8.5511 C.2     
  23 S23            5.4693    -1.9617     7.1957 S.3     
  24 O24            3.2964    -3.4450    10.0294 O.3     
  25 C25            3.9973    -4.4797    10.5531 C.2     
  26 N26            5.0981    -4.9543    10.0618 N.2     
  27 S27            3.5617    -5.3438    11.9625 S.3     
  28 C28            4.9850    -6.3672    11.7877 C.2     
  29 C29            5.6505    -5.9683    10.7027 C.2     
  30 H30            1.1720     2.1371    -0.0613 H       
  31 H31           -0.3435     2.0705    -0.9924 H       
  32 H32           -0.3907     2.0558     0.7869 H       
  33 H33            2.2292     0.6246     3.3908 H       
  34 H34            5.0878    -0.0472     5.2943 H       
  35 H35            3.5822     0.2519     4.3931 H       
  36 H36            4.2080     1.4844     5.5147 H       
  37 H37            0.7567     1.9089     6.4976 H       
  38 H38            2.1887     1.9202     5.4405 H       
  39 H39           -1.1998     0.5937     5.9252 H       
  40 H40           -1.4858    -0.9334     1.9543 H       
  41 H41           -2.5296    -0.4308     4.1258 H       
  42 H42            1.9069    -0.8957     1.2717 H       
  43 H43            5.7522    -3.7380     8.9788 H       
  44 H44            5.2705    -7.1745    12.4459 H       
  45 H45            6.5657    -6.4379    10.3738 H       
@<TRIPOS>BOND
   1    1   18 1
   2    1   30 1
   3    1   31 1
   4    1   32 1
   5    2   11 ar
   6    2   14 ar
   7    2   33 1
   8    3    6 1
   9    3   34 1
  10    3   35 1
  11    3   36 1
  12    4    5 2
  13    4    6 1
  14    4   23 1
  15    5   21 1
  16    5    9 1
  17    6    7 2
  18    7    8 1
  19    7   10 1
  20    8    9 1
  21    8   13 2
  22   10   11 1
  23   10   37 1
  24   10   38 1
  25   11   12 ar
  26   12   16 ar
  27   12   39 1
  28   14   15 ar
  29   14   17 1
  30   15   16 ar
  31   15   40 1
  32   16   41 1
  33   17   18 am
  34   17   42 1
  35   18   19 2
  36   18   20 2
  37   21   22 2
  38   21   24 1
  39   22   23 1
  40   22   43 1
  41   24   25 1
  42   25   27 1
  43   25   26 2
  44   26   29 1
  45   27   28 1
  46   28   29 2
  47   28   44 1
  48   29   45 1

#	End of record

