#	Name: ASD02560536
#	Creating user name:	WinNT
#	Creation time:	15. 06. 2019 20:25

#	Modifying user name:	WinNT
#	Modification time:	15. 06. 2019 20:25

#	Program:	/corina/corina34_cracker 3.40 0067  02.08.2006

@<TRIPOS>MOLECULE
ASD02560536
  58   61    0    0    0
SMALL
NO_CHARGES


@<TRIPOS>ATOM
   1 N1            -0.0228     1.2816    -0.0579 N.2     
   2 N2            -0.0040    -0.0033    -0.0528 N.2     
   3 C3             1.1936     1.7483    -0.0792 C.2     
   4 N4             2.0421     0.6730    -0.0883 N.pl3   
   5 C5             1.2367    -0.4325    -0.0708 C.2     
   6 S6             1.7643    -2.1137    -0.0721 S.3     
   7 C7             0.1579    -2.9472    -0.0430 C.3     
   8 C8             0.3663    -4.4397    -0.0400 C.2     
   9 O9             1.4903    -4.8951    -0.0561 O.2     
  10 N10           -0.6963    -5.2685    -0.0196 N.am    
  11 C11            3.4442     0.7000    -0.1108 C.ar    
  12 C12            4.1517     0.7182     1.0804 C.ar    
  13 C13            5.5324     0.7442     1.0559 C.ar    
  14 C14            6.1977     0.7550    -0.1532 C.ar    
  15 C15            5.4930     0.7403    -1.3503 C.ar    
  16 C16            4.1176     0.7024    -1.3317 C.ar    
  17 C17            6.2857     0.7692    -2.6309 C.3     
  18 C18            5.4232     0.3164    -3.8072 C.3     
  19 C19            4.1195     1.1231    -3.7907 C.3     
  20 C20            3.2900     0.6675    -2.5897 C.3     
  21 C21           -0.5088    -6.6452    -0.1340 C.ar    
  22 C22           -1.3525    -7.5195     0.5447 C.ar    
  23 C23           -1.1707    -8.8792     0.4337 C.ar    
  24 C24           -0.1367    -9.3819    -0.3622 C.ar    
  25 C25            0.7088    -8.5008    -1.0424 C.ar    
  26 C26            0.5177    -7.1420    -0.9310 C.ar    
  27 C27            0.0616   -10.8381    -0.4832 C.2     
  28 O28           -0.6740   -11.6027     0.1090 O.2     
  29 O29            1.0585   -11.3208    -1.2506 O.3     
  30 C30            1.5929     3.2014    -0.0917 C.3     
  31 F31            0.6259     3.9565     0.5806 F       
  32 F32            2.8285     3.3510     0.5470 F       
  33 C33            7.7043     0.7836    -0.1751 C.3     
  34 C34           -2.4663    -6.9767     1.4025 C.3     
  35 H35           -0.3870    -2.6547     0.8546 H       
  36 H36           -0.4154    -2.6622    -0.9251 H       
  37 H37           -1.5915    -4.9072     0.0747 H       
  38 H38            3.6260     0.7125     2.0238 H       
  39 H39            6.0900     0.7565     1.9807 H       
  40 H40            6.6372     1.7848    -2.8131 H       
  41 H41            7.1439     0.1039    -2.5375 H       
  42 H42            5.9541     0.4959    -4.7421 H       
  43 H43            5.1987    -0.7458    -3.7102 H       
  44 H44            4.3464     2.1856    -3.7032 H       
  45 H45            3.5632     0.9405    -4.7101 H       
  46 H46            2.9362    -0.3490    -2.7620 H       
  47 H47            2.4330     1.3307    -2.4724 H       
  48 H48           -1.8256    -9.5571     0.9609 H       
  49 H49            1.5087    -8.8856    -1.6577 H       
  50 H50            1.1706    -6.4606    -1.4562 H       
  51 H51            1.1491   -12.2824    -1.2989 H       
  52 H52            1.6723     3.5475    -1.1222 H       
  53 H53            8.0870    -0.2370    -0.1788 H       
  54 H54            8.0449     1.3026    -1.0711 H       
  55 H55            8.0707     1.3058     0.7087 H       
  56 H56           -3.3674    -6.8640     0.7996 H       
  57 H57           -2.6622    -7.6669     2.2232 H       
  58 H58           -2.1749    -6.0067     1.8053 H       
@<TRIPOS>BOND
   1    1    2 1
   2    1    3 2
   3    2    5 2
   4    3    4 1
   5    3   30 1
   6    4    5 1
   7    4   11 1
   8    5    6 1
   9    6    7 1
  10    7    8 1
  11    7   35 1
  12    7   36 1
  13    8    9 2
  14    8   10 am
  15   10   21 1
  16   10   37 1
  17   11   12 ar
  18   11   16 ar
  19   12   13 ar
  20   12   38 1
  21   13   14 ar
  22   13   39 1
  23   14   15 ar
  24   14   33 1
  25   15   16 ar
  26   15   17 1
  27   16   20 1
  28   17   18 1
  29   17   40 1
  30   17   41 1
  31   18   19 1
  32   18   42 1
  33   18   43 1
  34   19   20 1
  35   19   44 1
  36   19   45 1
  37   20   46 1
  38   20   47 1
  39   21   22 ar
  40   21   26 ar
  41   22   23 ar
  42   22   34 1
  43   23   24 ar
  44   23   48 1
  45   24   25 ar
  46   24   27 1
  47   25   26 ar
  48   25   49 1
  49   26   50 1
  50   27   28 2
  51   27   29 1
  52   29   51 1
  53   30   31 1
  54   30   32 1
  55   30   52 1
  56   33   53 1
  57   33   54 1
  58   33   55 1
  59   34   56 1
  60   34   57 1
  61   34   58 1

#	End of record

