#	Name: ASD01883773
#	Creating user name:	WinNT
#	Creation time:	15. 06. 2019 19:47

#	Modifying user name:	WinNT
#	Modification time:	15. 06. 2019 19:47

#	Program:	/corina/corina34_cracker 3.40 0067  02.08.2006

@<TRIPOS>MOLECULE
ASD01883773
  46   50    0    0    0
SMALL
NO_CHARGES


@<TRIPOS>ATOM
   1 C1            -0.0169     1.3979     0.0097 C.2     
   2 C2             0.0021    -0.0041     0.0020 C.2     
   3 C3            -1.2219    -0.7047     0.0104 C.2     
   4 C4            -2.3969    -0.0477     0.0252 C.2     
   5 N5            -2.4614     1.3153     0.0331 N.pl3   
   6 C6            -1.3172     2.0713     0.0319 C.2     
   7 C7            -3.5156     2.1914     0.0475 C.2     
   8 C8            -2.9977     3.4379     0.0489 C.2     
   9 N9            -1.6638     3.3458     0.0402 N.2     
  10 C10           -4.9787     1.8305     0.0589 C.3     
  11 C11            1.2863    -0.7371    -0.0152 C.ar    
  12 C12            1.6486    -1.5296     1.0689 C.ar    
  13 C13            2.8615    -2.2151     1.0400 C.ar    
  14 C14            3.7076    -2.1017    -0.0800 C.ar    
  15 C15            3.3251    -1.3023    -1.1545 C.ar    
  16 C16            2.1345    -0.6372    -1.1261 C.ar    
  17 C17           -5.5170     1.8381    -1.3732 C.3     
  18 F18           -4.8125     0.9048    -2.1412 F       
  19 F19           -6.8753     1.5030    -1.3626 F       
  20 F20           -5.3556     3.1133    -1.9253 F       
  21 C21            1.2014     2.1503     0.0021 C.1     
  22 C22            3.5443    -3.1138     1.9753 C.2     
  23 C23            4.7019    -3.4736     1.3993 C.2     
  24 N24            4.8172    -2.8788     0.1704 N.pl3   
  25 N25            2.1679     2.7473    -0.0039 N.1     
  26 C26            5.9026    -3.0372    -0.7019 C.ar    
  27 C27            7.1993    -2.8640    -0.2368 C.ar    
  28 C28            8.2676    -3.0211    -1.0980 C.ar    
  29 C29            8.0460    -3.3510    -2.4245 C.ar    
  30 C30            6.7535    -3.5241    -2.8903 C.ar    
  31 C31            5.6828    -3.3732    -2.0311 C.ar    
  32 F32            9.0923    -3.5038    -3.2655 F       
  33 H33           -1.2165    -1.7847     0.0046 H       
  34 H34           -3.3152    -0.6160     0.0306 H       
  35 H35           -3.5659     4.3563     0.0583 H       
  36 H36           -5.1044     0.8369     0.4891 H       
  37 H37           -5.5276     2.5576     0.6573 H       
  38 H38            0.9960    -1.6127     1.9254 H       
  39 H39            3.9713    -1.2124    -2.0151 H       
  40 H40            1.8469    -0.0201    -1.9645 H       
  41 H41            3.1841    -3.4270     2.9441 H       
  42 H42            5.4344    -4.1339     1.8395 H       
  43 H43            7.3725    -2.6064     0.7976 H       
  44 H44            9.2763    -2.8861    -0.7367 H       
  45 H45            6.5827    -3.7811    -3.9253 H       
  46 H46            4.6749    -3.5083    -2.3948 H       
@<TRIPOS>BOND
   1    1    2 2
   2    1   21 1
   3    1    6 1
   4    2    3 1
   5    2   11 1
   6    3    4 2
   7    3   33 1
   8    4    5 1
   9    4   34 1
  10    5    6 1
  11    5    7 1
  12    6    9 2
  13    7    8 2
  14    7   10 1
  15    8    9 1
  16    8   35 1
  17   10   17 1
  18   10   36 1
  19   10   37 1
  20   11   12 ar
  21   11   16 ar
  22   12   13 ar
  23   12   38 1
  24   13   14 ar
  25   13   22 1
  26   14   15 ar
  27   14   24 1
  28   15   16 ar
  29   15   39 1
  30   16   40 1
  31   17   18 1
  32   17   19 1
  33   17   20 1
  34   21   25 3
  35   22   23 2
  36   22   41 1
  37   23   24 1
  38   23   42 1
  39   24   26 1
  40   26   27 ar
  41   26   31 ar
  42   27   28 ar
  43   27   43 1
  44   28   29 ar
  45   28   44 1
  46   29   30 ar
  47   29   32 1
  48   30   31 ar
  49   30   45 1
  50   31   46 1

#	End of record

