#	Name: ASD01913758
#	Creating user name:	WinNT
#	Creation time:	15. 06. 2019 20:02

#	Modifying user name:	WinNT
#	Modification time:	15. 06. 2019 20:02

#	Program:	/corina/corina34_cracker 3.40 0067  02.08.2006

@<TRIPOS>MOLECULE
ASD01913758
  47   48    0    0    0
SMALL
NO_CHARGES


@<TRIPOS>ATOM
   1 O1            -0.0163     1.3508     0.0095 O.3     
   2 C2             0.0021    -0.0041     0.0020 C.ar    
   3 N3             1.1629    -0.6408    -0.0125 N.ar    
   4 C4             1.2330    -1.9556    -0.0202 C.ar    
   5 C5             0.0719    -2.7293    -0.0137 C.ar    
   6 C6            -1.1744    -2.0856     0.0016 C.ar    
   7 C7            -1.1994    -0.7064     0.0154 C.ar    
   8 C8             0.1538    -4.2032    -0.0234 C.2     
   9 N9             1.3565    -4.8112    -0.0386 N.am    
  10 O10           -0.8637    -4.8686    -0.0177 O.2     
  11 C11            1.2480     2.0168     0.0010 C.3     
  12 C12            1.0303     3.5079     0.0111 C.ar    
  13 C13            0.9420     4.1848     1.2125 C.ar    
  14 C14            0.7419     5.5551     1.2221 C.ar    
  15 C15            0.6306     6.2458     0.0277 C.ar    
  16 C16            0.7192     5.5666    -1.1739 C.ar    
  17 C17            0.9247     4.1988    -1.1818 C.ar    
  18 C18            1.4378    -6.2739    -0.0482 C.3     
  19 F19            0.6551     6.2173     2.3964 F       
  20 Br20           0.5673     6.5092    -2.8062 Br      
  21 C21            2.9063    -6.7030    -0.0649 C.3     
  22 C22            2.9912    -8.2306    -0.0749 C.3     
  23 C23            2.2874    -8.7724    -1.3207 C.3     
  24 C24            4.4597    -8.6597    -0.0916 C.3     
  25 C25            2.3113    -8.7874     1.1776 C.3     
  26 H26            2.1983    -2.4397    -0.0320 H       
  27 H27           -2.0916    -2.6557     0.0069 H       
  28 H28           -2.1409    -0.1774     0.0278 H       
  29 H29            2.1684    -4.2803    -0.0432 H       
  30 H30            1.8174     1.7267     0.8840 H       
  31 H31            1.8004     1.7363    -0.8958 H       
  32 H32            1.0286     3.6452     2.1440 H       
  33 H33            0.4742     7.3144     0.0340 H       
  34 H34            0.9939     3.6689    -2.1203 H       
  35 H35            0.9535    -6.6706     0.8441 H       
  36 H36            0.9364    -6.6598    -0.9358 H       
  37 H37            3.3906    -6.3064    -0.9572 H       
  38 H38            3.4077    -6.3171     0.8227 H       
  39 H39            2.7717    -8.3757    -2.2130 H       
  40 H40            2.3478    -9.8607    -1.3279 H       
  41 H41            1.2412    -8.4667    -1.3089 H       
  42 H42            4.9611    -8.2738     0.7960 H       
  43 H43            4.5201    -9.7480    -0.0987 H       
  44 H44            4.9440    -8.2631    -0.9839 H       
  45 H45            1.2651    -8.4817     1.1895 H       
  46 H46            2.3718    -9.8757     1.1704 H       
  47 H47            2.8127    -8.4015     2.0651 H       
@<TRIPOS>BOND
   1    1    2 1
   2    1   11 1
   3    2    3 ar
   4    2    7 ar
   5    3    4 ar
   6    4    5 ar
   7    4   26 1
   8    5    6 ar
   9    5    8 1
  10    6    7 ar
  11    6   27 1
  12    7   28 1
  13    8    9 am
  14    8   10 2
  15    9   18 1
  16    9   29 1
  17   11   12 1
  18   11   30 1
  19   11   31 1
  20   12   13 ar
  21   12   17 ar
  22   13   14 ar
  23   13   32 1
  24   14   15 ar
  25   14   19 1
  26   15   16 ar
  27   15   33 1
  28   16   17 ar
  29   16   20 1
  30   17   34 1
  31   18   21 1
  32   18   35 1
  33   18   36 1
  34   21   22 1
  35   21   37 1
  36   21   38 1
  37   22   23 1
  38   22   24 1
  39   22   25 1
  40   23   39 1
  41   23   40 1
  42   23   41 1
  43   24   42 1
  44   24   43 1
  45   24   44 1
  46   25   45 1
  47   25   46 1
  48   25   47 1

#	End of record

