#	Name: ASD06590061
#	Creating user name:	WinNT
#	Creation time:	15. 06. 2019 21:06

#	Modifying user name:	WinNT
#	Modification time:	15. 06. 2019 21:06

#	Program:	/corina/corina34_cracker 3.40 0067  02.08.2006

@<TRIPOS>MOLECULE
ASD06590061
 343  346    0    0    0
SMALL
NO_CHARGES


@<TRIPOS>ATOM
   1 C1            -4.2711    -6.7397     1.9557 C.2     
   2 O2            -4.7521    -7.8226     2.2143 O.2     
   3 N3            -2.1240    -7.6871     2.5861 N.3     
   4 C4            -2.7749    -6.5804     1.8723 C.3     
   5 C5            -2.3414    -6.5948     0.4051 C.3     
   6 C6            -0.8637    -6.3131     0.3150 C.2     
   7 O7            -0.2209    -6.1198     1.3245 O.2     
   8 N8            -0.2568    -6.2759    -0.8878 N.am    
   9 C9            -7.1922    -4.5127     1.5303 C.2     
  10 O10           -6.5160    -3.5350     1.2902 O.2     
  11 N11           -5.0748    -5.6801     1.7373 N.am    
  12 C12           -6.5296    -5.8364     1.8124 C.3     
  13 C13          -10.5415    -3.1001     1.9172 C.2     
  14 O14          -10.9346    -4.0602     2.5452 O.2     
  15 N15           -8.5364    -4.4153     1.5448 N.am    
  16 C16           -9.1806    -3.1284     1.2706 C.3     
  17 C17           -9.3302    -2.9448    -0.2410 C.3     
  18 C18           -7.9445    -2.8487    -0.8826 C.3     
  19 C19           -8.0919    -2.6679    -2.3715 C.2     
  20 O20           -9.1922    -2.6207    -2.8684 O.2     
  21 O21           -7.0007    -2.5592    -3.1456 O.3     
  22 C22          -13.5302    -1.0073     1.6906 C.2     
  23 O23          -13.0515    -0.2506     0.8727 O.2     
  24 N24          -11.3218    -2.0077     1.7975 N.am    
  25 C25          -12.6448    -1.9801     2.4261 C.3     
  26 C26          -12.5071    -1.5416     3.8854 C.3     
  27 C27          -11.7227    -2.5996     4.6640 C.3     
  28 C28          -11.7632    -0.2060     3.9486 C.3     
  29 C29          -16.9237     0.2715     2.1510 C.2     
  30 O30          -17.0769    -0.3475     3.1827 O.2     
  31 N31          -14.8540    -0.9782     1.9419 N.am    
  32 C32          -15.6982     0.0364     1.3061 C.3     
  33 C33          -16.1210    -0.4489    -0.0819 C.3     
  34 C34          -14.8869    -0.5683    -0.9783 C.3     
  35 C35          -15.3034    -1.0462    -2.3455 C.2     
  36 O36          -16.4723    -1.2694    -2.5798 O.2     
  37 N37          -14.3771    -1.2257    -3.3078 N.am    
  38 C38          -20.1565     1.9209     1.7137 C.2     
  39 O39          -19.9744     2.0863     0.5261 O.2     
  40 N40          -17.8495     1.1696     1.7602 N.am    
  41 C41          -19.0408     1.3982     2.5815 C.3     
  42 C42          -18.7199     2.4227     3.6716 C.3     
  43 C43          -23.4057     3.5049     2.2585 C.2     
  44 O44          -23.2067     3.6323     3.4480 O.2     
  45 N45          -21.3567     2.2047     2.2574 N.am    
  46 C46          -22.4413     2.7129     1.4138 C.3     
  47 C47          -23.1766     1.5380     0.7659 C.3     
  48 C48          -22.2298     0.8075    -0.1885 C.3     
  49 C49          -22.9542    -0.3497    -0.8267 C.2     
  50 O50          -24.1091    -0.5678    -0.5468 O.2     
  51 O51          -22.3162    -1.1382    -1.7059 O.3     
  52 C52          -26.7909     4.7630     2.0302 C.2     
  53 O53          -27.0500     3.9925     1.1301 O.2     
  54 N54          -24.4894     4.0716     1.6920 N.am    
  55 C55          -25.3655     4.9344     2.4884 C.3     
  56 C56          -24.9441     6.3942     2.3085 C.3     
  57 C57          -24.8970     6.7314     0.8169 C.3     
  58 C58          -26.3161     6.7146     0.2452 C.3     
  59 C59          -23.5587     6.6045     2.9229 C.3     
  60 C60          -29.9923     6.4544     2.5336 C.2     
  61 O61          -29.4615     7.4408     2.9985 O.2     
  62 N62          -27.7777     5.4658     2.6207 N.am    
  63 C63          -29.1739     5.2209     2.2507 C.3     
  64 C64          -29.7199     4.0482     3.0678 C.3     
  65 C65          -28.9704     2.7695     2.6883 C.3     
  66 C66          -29.5163     1.5968     3.5053 C.3     
  67 C67          -28.7668     0.3181     3.1258 C.3     
  68 N68          -29.2910    -0.8079     3.9102 N.3     
  69 C69          -33.5484     7.2692     2.7635 C.2     
  70 O70          -33.8770     6.1037     2.6962 O.2     
  71 N71          -31.3140     6.4612     2.2700 N.am    
  72 C72          -32.1095     7.6603     2.5450 C.3     
  73 C73          -32.0163     8.6180     1.3555 C.3     
  74 C74          -30.5757     9.1126     1.2106 C.3     
  75 C75          -30.4825    10.0703     0.0211 C.3     
  76 C76          -29.0419    10.5649    -0.1238 C.3     
  77 N77          -28.9524    11.4844    -1.2659 N.3     
  78 C78          -36.7621     9.0042     2.9220 C.2     
  79 O79          -36.2780    10.0522     2.5501 O.2     
  80 N80          -34.4701     8.2147     3.0338 N.am    
  81 C81          -35.8689     7.8346     3.2462 C.3     
  82 C82          -36.0707     7.4284     4.7075 C.3     
  83 O83          -35.8546     8.5614     5.5510 O.3     
  84 C84          -40.2632     9.8905     3.4879 C.2     
  85 O85          -40.4436     8.9400     4.2193 O.2     
  86 N86          -38.0990     8.8857     3.0453 N.am    
  87 C87          -38.9673    10.0228     2.7301 C.3     
  88 C88          -39.2551    10.0436     1.2275 C.3     
  89 C89          -37.9749    10.2987     0.4744 C.2     
  90 C90          -37.5253    11.4880     0.0439 C.2     
  91 N91          -36.3283    11.3291    -0.5998 N.pl3   
  92 C92          -35.9693     9.9998    -0.5992 C.ar    
  93 C93          -34.8762     9.3029    -1.1029 C.ar    
  94 C94          -34.8003     7.9370    -0.9380 C.ar    
  95 C95          -35.8048     7.2474    -0.2735 C.ar    
  96 C96          -36.8880     7.9121     0.2290 C.ar    
  97 C97          -36.9822     9.2968     0.0788 C.ar    
  98 C98          -43.5679    11.4480     3.3613 C.2     
  99 O99          -43.3149    12.0313     2.3285 O.2     
 100 N100         -41.2216    10.8284     3.3529 N.am    
 101 C101         -42.4813    10.6998     4.0897 C.3     
 102 C102         -42.3129    11.2839     5.4937 C.3     
 103 O103         -42.0720    12.6893     5.3992 O.3     
 104 C104         -46.9534    12.5955     4.1258 C.2     
 105 O105         -46.8485    12.3013     5.2977 O.2     
 106 N106         -44.8207    11.4690     3.8576 N.am    
 107 C107         -45.8770    12.1965     3.1495 C.3     
 108 C108         -46.4780    11.2973     2.0672 C.3     
 109 C109         -45.4159    10.9939     1.0086 C.3     
 110 C110         -46.0169    10.0948    -0.0737 C.3     
 111 N111         -44.9999     9.8042    -1.0874 N.pl3   
 112 C112         -45.3110     9.0092    -2.1651 C.2     
 113 N113         -44.4062     8.7507    -3.0670 N.2     
 114 N114         -46.5765     8.4869    -2.2915 N.pl3   
 115 C115         -50.3837    13.8406     3.9119 C.2     
 116 O116         -50.4345    13.6580     2.7140 O.2     
 117 N117         -48.0326    13.2794     3.6967 N.am    
 118 C118         -49.0789    13.6674     4.6458 C.3     
 119 C119         -48.6934    14.9861     5.3189 C.3     
 120 C120         -47.4549    14.7813     6.1527 C.2     
 121 C121         -47.4128    14.5095     7.4666 C.2     
 122 N122         -46.1130    14.3897     7.8769 N.pl3   
 123 C123         -45.2653    14.5866     6.8099 C.ar    
 124 C124         -43.8813    14.5768     6.6719 C.ar    
 125 C125         -43.3149    14.8149     5.4386 C.ar    
 126 C126         -44.1117    15.0648     4.3300 C.ar    
 127 C127         -45.4736    15.0795     4.4431 C.ar    
 128 C128         -46.0688    14.8347     5.6818 C.ar    
 129 C129         -53.6492    15.3128     4.6414 C.2     
 130 O130         -53.2599    15.7984     5.6824 O.2     
 131 N131         -51.4941    14.1985     4.5867 N.am    
 132 C132         -52.7625    14.3669     3.8732 C.3     
 133 C133         -53.4574    13.0103     3.7412 C.3     
 134 C134         -52.5084    12.0142     3.0716 C.3     
 135 O135         -53.8144    12.5296     5.0387 O.3     
 136 C136         -57.1789    16.2616     4.5803 C.2     
 137 O137         -57.4592    15.3826     3.7931 O.2     
 138 N138         -54.8747    15.6191     4.1717 N.am    
 139 C139         -55.7367    16.5386     4.9185 C.3     
 140 C140         -55.3923    17.9807     4.5409 C.3     
 141 C141         -53.9674    18.3010     4.9972 C.3     
 142 C142         -53.5781    19.6984     4.5108 C.3     
 143 C143         -53.8988    18.2552     6.5249 C.3     
 144 C144         -60.3780    17.9647     5.0583 C.2     
 145 O145         -59.8450    18.9724     5.4587 O.2     
 146 N146         -58.1573    16.9906     5.1528 N.am    
 147 C147         -59.5594    16.7213     4.8241 C.3     
 148 C148         -60.0833    15.5909     5.7121 C.3     
 149 O149         -61.6993    17.9527     4.8221 O.3     
 150 C150           1.0647    -6.0239    -0.9683 C.2     
 151 O151           1.7075    -5.8307     0.0411 O.2     
 152 C152          16.9811    -3.5696   -10.5513 C.3     
 153 C153          16.2922    -3.6118    -9.1859 C.3     
 154 C154          14.8043    -3.9143    -9.3745 C.3     
 155 C155          14.1153    -3.9565    -8.0090 C.3     
 156 C156          12.6275    -4.2590    -8.1976 C.3     
 157 C157          11.9385    -4.3012    -6.8321 C.3     
 158 C158          10.4506    -4.6037    -7.0207 C.3     
 159 C159           9.7617    -4.6458    -5.6553 C.3     
 160 C160           8.2738    -4.9484    -5.8439 C.3     
 161 C161           7.5849    -4.9905    -4.4784 C.3     
 162 C162           6.0970    -5.2930    -4.6670 C.3     
 163 C163           5.4080    -5.3352    -3.3015 C.3     
 164 C164           3.9201    -5.6377    -3.4901 C.3     
 165 C165           3.2312    -5.6799    -2.1247 C.3     
 166 C166           1.7433    -5.9824    -2.3133 C.3     
 167 H167          -2.3433    -7.6610     3.5706 H       
 168 H168          -2.3776    -8.5764     2.1826 H       
 169 H169          -2.4844    -5.6336     2.3277 H       
 170 H170          -2.5516    -7.5735    -0.0263 H       
 171 H171          -2.8912    -5.8302    -0.1438 H       
 172 H172          -0.7712    -6.4305    -1.6955 H       
 173 H173          -4.6901    -4.8141     1.5304 H       
 174 H174          -6.8074    -6.1766     2.8100 H       
 175 H175          -6.8547    -6.5700     1.0747 H       
 176 H176          -9.0773    -5.1973     1.7369 H       
 177 H177          -8.5690    -2.3223     1.6758 H       
 178 H178          -9.8659    -3.7970    -0.6592 H       
 179 H179          -9.8881    -2.0304    -0.4425 H       
 180 H180          -7.4088    -1.9966    -0.4644 H       
 181 H181          -7.3866    -3.7632    -0.6811 H       
 182 H182          -7.1455    -2.4446    -4.0948 H       
 183 H183         -11.0074    -1.2397     1.2952 H       
 184 H184         -13.0869    -2.9756     2.3860 H       
 185 H185         -13.4977    -1.4268     4.3253 H       
 186 H186         -10.6955    -2.6309     4.3006 H       
 187 H187         -11.7254    -2.3467     5.7243 H       
 188 H188         -12.1883    -3.5748     4.5218 H       
 189 H189         -12.3221     0.5477     3.3939 H       
 190 H190         -11.6651     0.1064     4.9882 H       
 191 H191         -10.7726    -0.3208     3.5086 H       
 192 H192         -15.2478    -1.6291     2.5437 H       
 193 H193         -15.1385     0.9669     1.2108 H       
 194 H194         -16.6027    -1.4228     0.0048 H       
 195 H195         -16.8199     0.2644    -0.5189 H       
 196 H196         -14.4053     0.4057    -1.0651 H       
 197 H197         -14.1881    -1.2816    -0.5414 H       
 198 H198         -13.4422    -1.0472    -3.1204 H       
 199 H199         -14.6452    -1.5333    -4.1878 H       
 200 H200         -17.7269     1.6647     0.9351 H       
 201 H201         -19.3489     0.4604     3.0437 H       
 202 H202         -18.4118     3.3606     3.2095 H       
 203 H203         -19.6063     2.5928     4.2827 H       
 204 H204         -17.9129     2.0446     4.2993 H       
 205 H205         -21.5023     2.0725     3.2072 H       
 206 H206         -22.0267     3.3551     0.6367 H       
 207 H207         -23.5145     0.8493     1.5402 H       
 208 H208         -24.0372     1.9101     0.2098 H       
 209 H209         -21.8919     1.4962    -0.9629 H       
 210 H210         -21.3693     0.4354     0.3675 H       
 211 H211         -22.8221    -1.8678    -2.0889 H       
 212 H212         -24.6893     3.9081     0.7570 H       
 213 H213         -25.2866     4.6604     3.5404 H       
 214 H214         -25.6644     7.0442     2.8054 H       
 215 H215         -24.4626     7.7219     0.6818 H       
 216 H216         -24.2869     5.9930     0.2966 H       
 217 H217         -26.6456     5.6830     0.1209 H       
 218 H218         -26.9895     7.2311     0.9292 H       
 219 H219         -26.3242     7.2176    -0.7217 H       
 220 H220         -22.8490     5.9172     2.4625 H       
 221 H221         -23.2359     7.6309     2.7485 H       
 222 H222         -23.6044     6.4152     3.9954 H       
 223 H223         -27.5635     6.1338     3.2906 H       
 224 H224         -29.2319     4.9821     1.1888 H       
 225 H225         -29.5806     4.2493     4.1300 H       
 226 H226         -30.7821     3.9226     2.8580 H       
 227 H227         -29.1097     2.5684     1.6261 H       
 228 H228         -27.9081     2.8951     2.8980 H       
 229 H229         -29.3770     1.7979     4.5675 H       
 230 H230         -30.5785     1.4711     3.2955 H       
 231 H231         -28.9061     0.1169     2.0636 H       
 232 H232         -27.7046     0.4437     3.3355 H       
 233 H233         -30.2872    -0.9047     3.7827 H       
 234 H234         -28.8117    -1.6648     3.6776 H       
 235 H235         -31.7385     5.6723     1.8982 H       
 236 H236         -31.7271     8.1529     3.4390 H       
 237 H237         -32.3151     8.0975     0.4456 H       
 238 H238         -32.6775     9.4686     1.5213 H       
 239 H239         -30.2770     9.6331     2.1205 H       
 240 H240         -29.9145     8.2620     1.0449 H       
 241 H241         -30.7812     9.5498    -0.8888 H       
 242 H242         -31.1437    10.9209     0.1868 H       
 243 H243         -28.7432    11.0854     0.7861 H       
 244 H244         -28.3807     9.7143    -0.2895 H       
 245 H245         -29.6036    12.2488    -1.1666 H       
 246 H246         -28.0099    11.8252    -1.3827 H       
 247 H247         -34.2073     9.1469     3.0877 H       
 248 H248         -36.1198     6.9951     2.5978 H       
 249 H249         -37.0878     7.0615     4.8454 H       
 250 H250         -35.3623     6.6417     4.9671 H       
 251 H251         -35.9660     8.3769     6.4937 H       
 252 H252         -38.4862     8.0476     3.3428 H       
 253 H253         -38.4711    10.9496     3.0179 H       
 254 H254         -39.6700     9.0825     0.9237 H       
 255 H255         -39.9711    10.8349     1.0057 H       
 256 H256         -38.0333    12.4307     0.1845 H       
 257 H257         -35.8099    12.0461    -0.9973 H       
 258 H258         -34.0896     9.8305    -1.6218 H       
 259 H259         -33.9508     7.3976    -1.3302 H       
 260 H260         -35.7300     6.1768    -0.1528 H       
 261 H261         -37.6660     7.3688     0.7446 H       
 262 H262         -41.0772    11.5886     2.7680 H       
 263 H263         -42.7526     9.6467     4.1644 H       
 264 H264         -43.2206    11.1089     6.0713 H       
 265 H265         -41.4690    10.8031     5.9885 H       
 266 H266         -41.9553    13.1266     6.2537 H       
 267 H267         -45.0231    11.0025     4.6836 H       
 268 H268         -45.4562    13.0895     2.6875 H       
 269 H269         -46.8190    10.3651     2.5174 H       
 270 H270         -47.3218    11.8053     1.6002 H       
 271 H271         -45.0749    11.9261     0.5583 H       
 272 H272         -44.5721    10.4860     1.4756 H       
 273 H273         -46.3579     9.1625     0.3765 H       
 274 H274         -46.8607    10.6027    -0.5407 H       
 275 H275         -44.1071    10.1727    -0.9982 H       
 276 H276         -44.6257     8.1898    -3.8273 H       
 277 H277         -47.2499     8.6793    -1.6203 H       
 278 H278         -46.7960     7.9261    -3.0518 H       
 279 H279         -48.1164    13.5147     2.7594 H       
 280 H280         -49.1884    12.8912     5.4032 H       
 281 H281         -48.4974    15.7397     4.5562 H       
 282 H282         -49.5106    15.3202     5.9582 H       
 283 H283         -48.2770    14.4016     8.1053 H       
 284 H284         -45.8307    14.1951     8.7843 H       
 285 H285         -43.2527    14.3837     7.5286 H       
 286 H286         -42.2400    14.8072     5.3335 H       
 287 H287         -43.6518    15.2494     3.3704 H       
 288 H288         -46.0872    15.2751     3.5762 H       
 289 H289         -51.4534    14.3446     5.5448 H       
 290 H290         -52.5698    14.7746     2.8809 H       
 291 H291         -54.3562    13.1200     3.1343 H       
 292 H292         -53.0035    11.0477     2.9775 H       
 293 H293         -52.2361    12.3809     2.0819 H       
 294 H294         -51.6096    11.9045     3.6784 H       
 295 H295         -54.2602    11.6715     5.0313 H       
 296 H296         -55.1861    15.2307     3.3391 H       
 297 H297         -55.5803    16.3958     5.9877 H       
 298 H298         -55.4630    18.1000     3.4597 H       
 299 H299         -56.0912    18.6607     5.0279 H       
 300 H300         -53.2787    17.5662     4.5803 H       
 301 H301         -54.2669    20.4332     4.9277 H       
 302 H302         -52.5631    19.9265     4.8359 H       
 303 H303         -53.6271    19.7310     3.4224 H       
 304 H304         -54.1761    17.2596     6.8714 H       
 305 H305         -52.8837    18.4833     6.8500 H       
 306 H306         -54.5875    18.9899     6.9418 H       
 307 H307         -57.9332    17.6936     5.7825 H       
 308 H308         -59.6371    16.4269     3.7775 H       
 309 H309         -60.0056    15.8853     6.7587 H       
 310 H310         -61.1265    15.3906     5.4675 H       
 311 H311         -59.4912    14.6916     5.5427 H       
 312 H312         -62.1822    18.7741     4.9870 H       
 313 H313          18.0411    -3.3541   -10.4170 H       
 314 H314          16.8663    -4.5340   -11.0461 H       
 315 H315          16.5267    -2.7907   -11.1636 H       
 316 H316          16.7465    -4.3907    -8.5735 H       
 317 H317          16.4070    -2.6474    -8.6910 H       
 318 H318          14.3499    -3.1354    -9.9868 H       
 319 H319          14.6895    -4.8787    -9.8693 H       
 320 H320          14.5697    -4.7354    -7.3967 H       
 321 H321          14.2302    -2.9921    -7.5142 H       
 322 H322          12.1731    -3.4801    -8.8099 H       
 323 H323          12.5126    -5.2234    -8.6924 H       
 324 H324          12.3929    -5.0801    -6.2198 H       
 325 H325          12.0533    -3.3368    -6.3373 H       
 326 H326           9.9962    -3.8248    -7.6330 H       
 327 H327          10.3358    -5.5681    -7.5155 H       
 328 H328          10.2161    -5.4248    -5.0429 H       
 329 H329           9.8765    -3.6814    -5.1604 H       
 330 H330           7.8194    -4.1694    -6.4562 H       
 331 H331           8.1590    -5.9128    -6.3387 H       
 332 H332           8.0392    -5.7694    -3.8661 H       
 333 H333           7.6997    -4.0261    -3.9836 H       
 334 H334           5.6426    -4.5141    -5.2793 H       
 335 H335           5.9822    -6.2574    -5.1618 H       
 336 H336           5.8624    -6.1141    -2.6892 H       
 337 H337           5.5228    -4.3708    -2.8067 H       
 338 H338           3.4658    -4.8588    -4.1024 H       
 339 H339           3.8053    -6.6021    -3.9849 H       
 340 H340           3.6856    -6.4588    -1.5123 H       
 341 H341           3.3460    -4.7155    -1.6298 H       
 342 H342           1.6285    -6.9468    -2.8081 H       
 343 H343           1.2889    -5.2035    -2.9256 H       
@<TRIPOS>BOND
   1    1    2 2
   2    1    4 1
   3    1   11 am
   4    3    4 1
   5    3  167 1
   6    3  168 1
   7    4    5 1
   8    4  169 1
   9    5    6 1
  10    5  170 1
  11    5  171 1
  12    6    7 2
  13    6    8 am
  14    8  150 am
  15    8  172 1
  16    9   10 2
  17    9   12 1
  18    9   15 am
  19   11   12 1
  20   11  173 1
  21   12  174 1
  22   12  175 1
  23   13   14 2
  24   13   16 1
  25   13   24 am
  26   15   16 1
  27   15  176 1
  28   16   17 1
  29   16  177 1
  30   17   18 1
  31   17  178 1
  32   17  179 1
  33   18   19 1
  34   18  180 1
  35   18  181 1
  36   19   20 2
  37   19   21 1
  38   21  182 1
  39   22   23 2
  40   22   25 1
  41   22   31 am
  42   24   25 1
  43   24  183 1
  44   25   26 1
  45   25  184 1
  46   26   27 1
  47   26   28 1
  48   26  185 1
  49   27  186 1
  50   27  187 1
  51   27  188 1
  52   28  189 1
  53   28  190 1
  54   28  191 1
  55   29   30 2
  56   29   32 1
  57   29   40 am
  58   31   32 1
  59   31  192 1
  60   32   33 1
  61   32  193 1
  62   33   34 1
  63   33  194 1
  64   33  195 1
  65   34   35 1
  66   34  196 1
  67   34  197 1
  68   35   36 2
  69   35   37 am
  70   37  198 1
  71   37  199 1
  72   38   39 2
  73   38   41 1
  74   38   45 am
  75   40   41 1
  76   40  200 1
  77   41   42 1
  78   41  201 1
  79   42  202 1
  80   42  203 1
  81   42  204 1
  82   43   44 2
  83   43   46 1
  84   43   54 am
  85   45   46 1
  86   45  205 1
  87   46   47 1
  88   46  206 1
  89   47   48 1
  90   47  207 1
  91   47  208 1
  92   48   49 1
  93   48  209 1
  94   48  210 1
  95   49   50 2
  96   49   51 1
  97   51  211 1
  98   52   53 2
  99   52   55 1
 100   52   62 am
 101   54   55 1
 102   54  212 1
 103   55   56 1
 104   55  213 1
 105   56   57 1
 106   56   59 1
 107   56  214 1
 108   57   58 1
 109   57  215 1
 110   57  216 1
 111   58  217 1
 112   58  218 1
 113   58  219 1
 114   59  220 1
 115   59  221 1
 116   59  222 1
 117   60   61 2
 118   60   63 1
 119   60   71 am
 120   62   63 1
 121   62  223 1
 122   63   64 1
 123   63  224 1
 124   64   65 1
 125   64  225 1
 126   64  226 1
 127   65   66 1
 128   65  227 1
 129   65  228 1
 130   66   67 1
 131   66  229 1
 132   66  230 1
 133   67   68 1
 134   67  231 1
 135   67  232 1
 136   68  233 1
 137   68  234 1
 138   69   70 2
 139   69   72 1
 140   69   80 am
 141   71   72 1
 142   71  235 1
 143   72   73 1
 144   72  236 1
 145   73   74 1
 146   73  237 1
 147   73  238 1
 148   74   75 1
 149   74  239 1
 150   74  240 1
 151   75   76 1
 152   75  241 1
 153   75  242 1
 154   76   77 1
 155   76  243 1
 156   76  244 1
 157   77  245 1
 158   77  246 1
 159   78   79 2
 160   78   81 1
 161   78   86 am
 162   80   81 1
 163   80  247 1
 164   81   82 1
 165   81  248 1
 166   82   83 1
 167   82  249 1
 168   82  250 1
 169   83  251 1
 170   84   85 2
 171   84   87 1
 172   84  100 am
 173   86   87 1
 174   86  252 1
 175   87   88 1
 176   87  253 1
 177   88   89 1
 178   88  254 1
 179   88  255 1
 180   89   90 2
 181   89   97 1
 182   90   91 1
 183   90  256 1
 184   91   92 1
 185   91  257 1
 186   92   93 ar
 187   92   97 ar
 188   93   94 ar
 189   93  258 1
 190   94   95 ar
 191   94  259 1
 192   95   96 ar
 193   95  260 1
 194   96   97 ar
 195   96  261 1
 196   98   99 2
 197   98  101 1
 198   98  106 am
 199  100  101 1
 200  100  262 1
 201  101  102 1
 202  101  263 1
 203  102  103 1
 204  102  264 1
 205  102  265 1
 206  103  266 1
 207  104  105 2
 208  104  107 1
 209  104  117 am
 210  106  107 1
 211  106  267 1
 212  107  108 1
 213  107  268 1
 214  108  109 1
 215  108  269 1
 216  108  270 1
 217  109  110 1
 218  109  271 1
 219  109  272 1
 220  110  111 1
 221  110  273 1
 222  110  274 1
 223  111  112 1
 224  111  275 1
 225  112  113 2
 226  112  114 1
 227  113  276 1
 228  114  277 1
 229  114  278 1
 230  115  116 2
 231  115  118 1
 232  115  131 am
 233  117  118 1
 234  117  279 1
 235  118  119 1
 236  118  280 1
 237  119  120 1
 238  119  281 1
 239  119  282 1
 240  120  121 2
 241  120  128 1
 242  121  122 1
 243  121  283 1
 244  122  123 1
 245  122  284 1
 246  123  124 ar
 247  123  128 ar
 248  124  125 ar
 249  124  285 1
 250  125  126 ar
 251  125  286 1
 252  126  127 ar
 253  126  287 1
 254  127  128 ar
 255  127  288 1
 256  129  130 2
 257  129  132 1
 258  129  138 am
 259  131  132 1
 260  131  289 1
 261  132  133 1
 262  132  290 1
 263  133  134 1
 264  133  135 1
 265  133  291 1
 266  134  292 1
 267  134  293 1
 268  134  294 1
 269  135  295 1
 270  136  137 2
 271  136  139 1
 272  136  146 am
 273  138  139 1
 274  138  296 1
 275  139  140 1
 276  139  297 1
 277  140  141 1
 278  140  298 1
 279  140  299 1
 280  141  142 1
 281  141  143 1
 282  141  300 1
 283  142  301 1
 284  142  302 1
 285  142  303 1
 286  143  304 1
 287  143  305 1
 288  143  306 1
 289  144  145 2
 290  144  147 1
 291  144  149 1
 292  146  147 1
 293  146  307 1
 294  147  148 1
 295  147  308 1
 296  148  309 1
 297  148  310 1
 298  148  311 1
 299  149  312 1
 300  150  151 2
 301  150  166 1
 302  152  153 1
 303  152  313 1
 304  152  314 1
 305  152  315 1
 306  153  154 1
 307  153  316 1
 308  153  317 1
 309  154  155 1
 310  154  318 1
 311  154  319 1
 312  155  156 1
 313  155  320 1
 314  155  321 1
 315  156  157 1
 316  156  322 1
 317  156  323 1
 318  157  158 1
 319  157  324 1
 320  157  325 1
 321  158  159 1
 322  158  326 1
 323  158  327 1
 324  159  160 1
 325  159  328 1
 326  159  329 1
 327  160  161 1
 328  160  330 1
 329  160  331 1
 330  161  162 1
 331  161  332 1
 332  161  333 1
 333  162  163 1
 334  162  334 1
 335  162  335 1
 336  163  164 1
 337  163  336 1
 338  163  337 1
 339  164  165 1
 340  164  338 1
 341  164  339 1
 342  165  166 1
 343  165  340 1
 344  165  341 1
 345  166  342 1
 346  166  343 1

#	End of record

