#	Name: ASD01880792
#	Creating user name:	WinNT
#	Creation time:	15. 06. 2019 19:41

#	Modifying user name:	WinNT
#	Modification time:	15. 06. 2019 19:41

#	Program:	/corina/corina34_cracker 3.40 0067  02.08.2006

@<TRIPOS>MOLECULE
ASD01880792
  54   57    0    0    0
SMALL
NO_CHARGES


@<TRIPOS>ATOM
   1 N1             0.3128     1.3241    -0.8035 N.ar    
   2 C2             0.2633     0.0090    -0.7421 C.ar    
   3 N3             1.0706    -0.6813     0.0380 N.ar    
   4 C4             1.9712    -0.0737     0.7973 C.ar    
   5 C5             2.0597     1.3043     0.7659 C.ar    
   6 C6             1.1896     2.0052    -0.0714 C.ar    
   7 C7             3.0701     2.0329     1.6140 C.3     
   8 O8             4.3013     2.1450     0.8973 O.3     
   9 C9             5.3237     2.7800     1.5245 C.ar    
  10 C10            6.5502     2.9239     0.8834 C.ar    
  11 C11            7.5834     3.5668     1.5187 C.ar    
  12 C12            7.4116     4.0793     2.8089 C.ar    
  13 C13            6.1775     3.9323     3.4482 C.ar    
  14 C14            5.1428     3.2908     2.8043 C.ar    
  15 C15            9.0028     3.8855     1.1196 C.3     
  16 N16            9.5978     4.5977     2.2562 N.am    
  17 C17            8.6764     4.7073     3.2285 C.2     
  18 O18            8.8605     5.2483     4.3017 O.2     
  19 C19            2.8872    -0.8766     1.6847 C.3     
  20 C20            5.9779     4.4789     4.8383 C.3     
  21 N21            1.2392     3.3881    -0.1389 N.3     
  22 C22            0.0108     3.9864     0.4037 C.3     
  23 C23            0.1324     5.5120     0.3650 C.3     
  24 O24            0.3913     5.9307    -0.9778 O.3     
  25 C25            1.5808     5.3674    -1.5373 C.3     
  26 C26            1.4738     3.8403    -1.5179 C.3     
  27 C27           11.0101     6.5381     1.7855 C.3     
  28 C28           10.9706     5.1054     2.3206 C.3     
  29 H29           -0.4592    -0.5180    -1.3476 H       
  30 H30            2.6953     3.0288     1.8504 H       
  31 H31            3.2365     1.4786     2.5376 H       
  32 H32            6.6893     2.5301    -0.1126 H       
  33 H33            4.1893     3.1779     3.2986 H       
  34 H34            9.5529     2.9649     0.9247 H       
  35 H35            9.0093     4.5211     0.2342 H       
  36 H36            3.7933    -1.1320     1.1353 H       
  37 H37            3.1491    -0.2881     2.5639 H       
  38 H38            2.3817    -1.7906     1.9966 H       
  39 H39            5.6177     5.5058     4.7768 H       
  40 H40            5.2461     3.8682     5.3672 H       
  41 H41            6.9255     4.4579     5.3765 H       
  42 H42           -0.8427     3.6740    -0.1980 H       
  43 H43           -0.1297     3.6584     1.4336 H       
  44 H44           -0.7982     5.9603     0.7130 H       
  45 H45            0.9528     5.8282     1.0094 H       
  46 H46            1.6976     5.7110    -2.5651 H       
  47 H47            2.4432     5.6793    -0.9483 H       
  48 H48            2.4013     3.4056    -1.8907 H       
  49 H49            0.6437     3.5255    -2.1503 H       
  50 H50           12.0315     6.9158     1.8334 H       
  51 H51           10.6669     6.5492     0.7510 H       
  52 H52           10.3602     7.1701     2.3907 H       
  53 H53           11.3138     5.0943     3.3551 H       
  54 H54           11.6205     4.4733     1.7154 H       
@<TRIPOS>BOND
   1    1    2 ar
   2    1    6 ar
   3    2    3 ar
   4    2   29 1
   5    3    4 ar
   6    4    5 ar
   7    4   19 1
   8    5    6 ar
   9    5    7 1
  10    6   21 1
  11    7    8 1
  12    7   30 1
  13    7   31 1
  14    8    9 1
  15    9   10 ar
  16    9   14 ar
  17   10   11 ar
  18   10   32 1
  19   11   12 ar
  20   11   15 1
  21   12   13 ar
  22   12   17 1
  23   13   14 ar
  24   13   20 1
  25   14   33 1
  26   15   16 1
  27   15   34 1
  28   15   35 1
  29   16   17 am
  30   16   28 1
  31   17   18 2
  32   19   36 1
  33   19   37 1
  34   19   38 1
  35   20   39 1
  36   20   40 1
  37   20   41 1
  38   21   22 1
  39   21   26 1
  40   22   23 1
  41   22   42 1
  42   22   43 1
  43   23   24 1
  44   23   44 1
  45   23   45 1
  46   24   25 1
  47   25   26 1
  48   25   46 1
  49   25   47 1
  50   26   48 1
  51   26   49 1
  52   27   28 1
  53   27   50 1
  54   27   51 1
  55   27   52 1
  56   28   53 1
  57   28   54 1

#	End of record

