#	Name: ASD01913434
#	Creating user name:	WinNT
#	Creation time:	15. 06. 2019 20:01

#	Modifying user name:	WinNT
#	Modification time:	15. 06. 2019 20:01

#	Program:	/corina/corina34_cracker 3.40 0067  02.08.2006

@<TRIPOS>MOLECULE
ASD01913434
  34   36    0    0    0
SMALL
NO_CHARGES


@<TRIPOS>ATOM
   1 C1             0.7918     0.2035    -1.0192 C.ar    
   2 C2             0.0033    -0.0127     0.1063 C.ar    
   3 C3             0.4210     0.4934     1.3289 C.ar    
   4 N4             1.5480     1.1699     1.4272 N.ar    
   5 C5             2.3182     1.3923     0.3800 C.ar    
   6 C6             1.9687     0.9198    -0.8710 C.ar    
   7 C7            -1.0863    -2.0577    -0.1025 C.ar    
   8 C8            -2.2388    -2.8136    -0.3121 C.ar    
   9 C9            -2.1158    -4.1859    -0.4262 C.ar    
  10 N10           -0.9156    -4.7380    -0.3338 N.ar    
  11 C11            0.1616    -3.9941    -0.1344 C.ar    
  12 N12            0.0851    -2.6774    -0.0199 N.ar    
  13 N13            1.4023    -4.6104    -0.0431 N.am    
  14 C14            1.4995    -5.9498    -0.1573 C.2     
  15 O15           -1.1598    -0.7092     0.0098 O.3     
  16 C16            2.8203    -6.6059    -0.0602 C.ar    
  17 C17            2.9243    -7.9928    -0.1780 C.ar    
  18 C18            4.1601    -8.5996    -0.0869 C.ar    
  19 C19            5.2952    -7.8370     0.1212 C.ar    
  20 C20            5.1997    -6.4603     0.2391 C.ar    
  21 C21            3.9698    -5.8405     0.1440 C.ar    
  22 O22            0.5009    -6.6181    -0.3401 O.2     
  23 Cl23           6.6300    -5.5119     0.5007 Cl      
  24 H24            0.4961    -0.1814    -1.9840 H       
  25 H25           -0.1837     0.3317     2.2091 H       
  26 H26            3.2341     1.9515     0.5015 H       
  27 H27            2.6057     1.1063    -1.7230 H       
  28 H28           -3.2059    -2.3380    -0.3833 H       
  29 H29           -2.9887    -4.8008    -0.5885 H       
  30 H30            2.1993    -4.0770     0.1028 H       
  31 H31            2.0390    -8.5899    -0.3398 H       
  32 H32            4.2414    -9.6727    -0.1780 H       
  33 H33            6.2599    -8.3171     0.1924 H       
  34 H34            3.8961    -4.7670     0.2361 H       
@<TRIPOS>BOND
   1    1    2 ar
   2    1    6 ar
   3    1   24 1
   4    2    3 ar
   5    2   15 1
   6    3    4 ar
   7    3   25 1
   8    4    5 ar
   9    5    6 ar
  10    5   26 1
  11    6   27 1
  12    7    8 ar
  13    7   12 ar
  14    7   15 1
  15    8    9 ar
  16    8   28 1
  17    9   10 ar
  18    9   29 1
  19   10   11 ar
  20   11   12 ar
  21   11   13 1
  22   13   14 am
  23   13   30 1
  24   14   16 1
  25   14   22 2
  26   16   17 ar
  27   16   21 ar
  28   17   18 ar
  29   17   31 1
  30   18   19 ar
  31   18   32 1
  32   19   20 ar
  33   19   33 1
  34   20   21 ar
  35   20   23 1
  36   21   34 1

#	End of record

