#	Name: ASD05430111
#	Creating user name:	WinNT
#	Creation time:	15. 06. 2019 20:59

#	Modifying user name:	WinNT
#	Modification time:	15. 06. 2019 20:59

#	Program:	/corina/corina34_cracker 3.40 0067  02.08.2006

@<TRIPOS>MOLECULE
ASD05430111
  64   70    0    0    0
SMALL
NO_CHARGES


@<TRIPOS>ATOM
   1 F1             7.9113     6.9157    -4.0139 F       
   2 C2             0.1936     1.1543    -1.0616 C.ar    
   3 C3             0.0198    -0.0136    -0.3173 C.ar    
   4 C4             1.0306    -0.4683     0.5196 C.ar    
   5 C5             2.2119     0.2320     0.6189 C.ar    
   6 C6             2.3920     1.4017    -0.1242 C.ar    
   7 C7             1.3679     1.8587    -0.9687 C.ar    
   8 C8             4.8831    -0.0063    -0.0837 C.3     
   9 C9             4.8238     1.4960     0.0670 C.2     
  10 C10            3.6531     2.1540    -0.0208 C.2     
  11 C11            6.3008    -0.4455    -0.4540 C.3     
  12 C12            7.0851     0.6085    -1.2419 C.3     
  13 N13            7.1894     1.8230    -0.4343 N.pl3   
  14 C14            6.0827     2.2209     0.3132 C.2     
  15 C15            8.2728     3.7863    -1.3640 C.ar    
  16 C16            9.3574     4.1719    -2.1296 C.ar    
  17 C17            9.2372     5.2222    -3.0197 C.ar    
  18 C18            8.0299     5.8885    -3.1444 C.ar    
  19 C19            6.9443     5.5015    -2.3771 C.ar    
  20 C20            7.0668     4.4508    -1.4878 C.ar    
  21 N21           -1.1795    -0.7299    -0.4143 N.pl3   
  22 C22           -1.3090    -2.0757    -0.6428 C.2     
  23 C23           -2.6286    -2.3430    -0.6601 C.2     
  24 N24           -3.2913    -1.1961    -0.4488 N.2     
  25 C25           -2.4347    -0.2237    -0.2942 C.2     
  26 C26           -3.2531    -3.6969    -0.8797 C.3     
  27 C27            8.4034     2.6368    -0.3983 C.3     
  28 C28            8.5812     3.1760     1.0251 C.3     
  29 O29            7.3918     3.8323     1.4518 O.3     
  30 N30            6.1769     3.1688     1.1868 N.2     
  31 C31            7.0847    -0.9980     0.7401 C.3     
  32 S32            7.9694    -2.1301    -0.3675 S.o2    
  33 C33            6.3427    -1.8284    -1.1115 C.3     
  34 O34            9.0243    -1.4937    -1.0756 O.2     
  35 O35            8.0938    -3.4396     0.1700 O.2     
  36 C36            0.9064     2.9045    -1.9483 C.3     
  37 C37           -0.3943     2.1208    -2.0554 C.3     
  38 H38            0.8898    -1.3723     1.0935 H       
  39 H39            2.9976    -0.1217     1.2700 H       
  40 H40            4.5939    -0.4752     0.8568 H       
  41 H41            4.1923    -0.3181    -0.8672 H       
  42 H42            3.6388     3.2338    -0.0153 H       
  43 H43            8.0832     0.2307    -1.4636 H       
  44 H44            6.5628     0.8324    -2.1721 H       
  45 H45           10.2991     3.6523    -2.0319 H       
  46 H46           10.0847     5.5235    -3.6174 H       
  47 H47            6.0021     6.0205    -2.4736 H       
  48 H48            6.2202     4.1488    -0.8891 H       
  49 H49           -0.5067    -2.7851    -0.7820 H       
  50 H50           -2.6821     0.8111    -0.1090 H       
  51 H51           -3.3817    -4.1976     0.0799 H       
  52 H52           -4.2244    -3.5755    -1.3592 H       
  53 H53           -2.6049    -4.2967    -1.5185 H       
  54 H54            9.2638     2.0249    -0.6693 H       
  55 H55            8.7997     2.3488     1.7004 H       
  56 H56            9.4105     3.8833     1.0428 H       
  57 H57            7.7357    -0.2575     1.2049 H       
  58 H58            6.4545    -1.5133     1.4650 H       
  59 H59            5.5705    -2.5026    -0.7410 H       
  60 H60            6.3710    -1.7845    -2.2002 H       
  61 H61            0.7885     3.8942    -1.5070 H       
  62 H62            1.4810     2.9188    -2.8744 H       
  63 H63           -0.5633     1.6883    -3.0415 H       
  64 H64           -1.2615     2.6604    -1.6747 H       
@<TRIPOS>BOND
   1    1   18 1
   2    2    3 ar
   3    2    7 ar
   4    2   37 1
   5    3    4 ar
   6    3   21 1
   7    4    5 ar
   8    4   38 1
   9    5    6 ar
  10    5   39 1
  11    6    7 ar
  12    6   10 1
  13    7   36 1
  14    8    9 1
  15    8   11 1
  16    8   40 1
  17    8   41 1
  18    9   10 2
  19    9   14 1
  20   10   42 1
  21   11   12 1
  22   11   31 1
  23   11   33 1
  24   12   13 1
  25   12   43 1
  26   12   44 1
  27   13   14 1
  28   13   27 1
  29   14   30 2
  30   15   16 ar
  31   15   20 ar
  32   15   27 1
  33   16   17 ar
  34   16   45 1
  35   17   18 ar
  36   17   46 1
  37   18   19 ar
  38   19   20 ar
  39   19   47 1
  40   20   48 1
  41   21   22 1
  42   21   25 1
  43   22   23 2
  44   22   49 1
  45   23   24 1
  46   23   26 1
  47   24   25 2
  48   25   50 1
  49   26   51 1
  50   26   52 1
  51   26   53 1
  52   27   28 1
  53   27   54 1
  54   28   29 1
  55   28   55 1
  56   28   56 1
  57   29   30 1
  58   31   32 1
  59   31   57 1
  60   31   58 1
  61   32   33 1
  62   32   34 2
  63   32   35 2
  64   33   59 1
  65   33   60 1
  66   36   37 1
  67   36   61 1
  68   36   62 1
  69   37   63 1
  70   37   64 1

#	End of record

