#	Name: ASD00731053
#	Creating user name:	WinNT
#	Creation time:	15. 06. 2019 18:37

#	Modifying user name:	WinNT
#	Modification time:	15. 06. 2019 18:37

#	Program:	/corina/corina34_cracker 3.40 0067  02.08.2006

@<TRIPOS>MOLECULE
ASD00731053
 233  235    0    0    0
SMALL
NO_CHARGES


@<TRIPOS>ATOM
   1 C1            -1.2467     0.1142    -0.3433 C.2     
   2 O2            -1.6370    -1.0080    -0.5866 O.2     
   3 N3             0.9855    -0.8095    -0.5743 N.am    
   4 C4             0.2246     0.4322    -0.4145 C.3     
   5 C5             0.4907     1.3506    -1.6090 C.3     
   6 C6             1.9818     1.6877    -1.6710 C.3     
   7 O7             0.1013     0.6892    -2.8144 O.3     
   8 C8            -4.2519     1.9030    -0.8535 C.2     
   9 O9            -3.6021     2.8204    -1.3087 O.2     
  10 N10           -2.1294     1.0782    -0.0146 N.am    
  11 C11           -3.5676     0.8070    -0.0779 C.3     
  12 C12           -4.1392     0.7526     1.3403 C.3     
  13 C13           -3.5140    -0.3955     2.0901 C.2     
  14 O14           -2.6653    -1.0725     1.5600 O.2     
  15 O15           -3.9001    -0.6658     3.3470 O.3     
  16 C16           -7.6941     3.0199    -1.3704 C.2     
  17 O17           -8.1244     2.2685    -0.5212 O.2     
  18 N18           -5.5859     1.8638    -1.0414 N.am    
  19 C19           -6.2511     2.9292    -1.7955 C.3     
  20 C20           -6.1788     2.6168    -3.2915 C.3     
  21 C21           -4.7192     2.6478    -3.7490 C.3     
  22 C22           -4.6469     2.3354    -5.2450 C.3     
  23 N23           -3.2492     2.3650    -5.6831 N.pl3   
  24 C24           -2.9354     2.1126    -6.9976 C.2     
  25 N25           -3.8813     1.8469    -7.8541 N.2     
  26 N26           -1.6238     2.1404    -7.4088 N.pl3   
  27 C27          -10.7188     4.7469    -2.5140 C.2     
  28 O28          -10.1891     5.3887    -3.3963 O.2     
  29 N29           -8.5063     3.9360    -1.9339 N.am    
  30 C30           -9.8776     4.0988    -1.4447 C.3     
  31 C31           -9.8719     4.9817    -0.1952 C.3     
  32 C32          -11.2841     5.0468     0.3898 C.3     
  33 C33          -11.6843     3.6652     0.9113 C.3     
  34 C34          -11.3135     6.0545     1.5406 C.3     
  35 C35          -14.2620     5.4349    -3.0930 C.2     
  36 O36          -14.5507     5.2181    -1.9352 O.2     
  37 N37          -12.0597     4.6133    -2.4898 N.am    
  38 C38          -12.8687     5.1454    -3.5891 C.3     
  39 C39          -12.9334     4.1161    -4.7193 C.3     
  40 C40          -11.5350     3.9149    -5.3065 C.3     
  41 C41          -11.5997     2.8857    -6.4368 C.3     
  42 N42          -10.2607     2.6930    -6.9990 N.pl3   
  43 C43          -10.0705     1.8084    -8.0342 C.2     
  44 N44           -8.8792     1.6370    -8.5344 N.2     
  45 N45          -11.1370     1.1047    -8.5416 N.pl3   
  46 C46          -17.5073     6.1637    -4.6094 C.2     
  47 O47          -17.1040     5.9156    -5.7259 O.2     
  48 N48          -15.1872     5.9348    -3.9360 N.am    
  49 C49          -16.5416     6.2162    -3.4537 C.3     
  50 C50          -16.5785     7.6088    -2.8211 C.3     
  51 C51          -15.6930     7.6259    -1.5735 C.3     
  52 C52          -15.7299     9.0185    -0.9409 C.3     
  53 C53          -14.8443     9.0355     0.3067 C.3     
  54 N54          -14.8798    10.3726     0.9141 N.3     
  55 C55          -20.9645     7.1881    -5.2110 C.2     
  56 O56          -21.0332     7.7763    -4.1526 O.2     
  57 N57          -18.8193     6.3925    -4.4022 N.am    
  58 C58          -19.7581     6.3415    -5.5256 C.3     
  59 C59          -20.1973     4.8944    -5.7580 C.3     
  60 C60          -19.0108     4.0729    -6.1923 C.2     
  61 C61          -18.6531     3.7925    -7.4553 C.2     
  62 N62          -17.5223     3.0220    -7.4600 N.pl3   
  63 C63          -17.1143     2.7818    -6.1670 C.ar    
  64 C64          -16.0519     2.0749    -5.6139 C.ar    
  65 C65          -15.9073     2.0172    -4.2448 C.ar    
  66 C66          -16.8120     2.6578    -3.4098 C.ar    
  67 C67          -17.8634     3.3575    -3.9319 C.ar    
  68 C68          -18.0255     3.4344    -5.3163 C.ar    
  69 C69          -24.1054     8.0623    -6.9557 C.2     
  70 O70          -23.8403     7.4024    -7.9381 O.2     
  71 N71          -21.9670     7.2918    -6.1059 N.am    
  72 C72          -23.1397     8.1148    -5.8001 C.3     
  73 C73          -27.0564     9.9396    -8.0191 C.2     
  74 O74          -26.8963    10.7841    -7.1635 O.2     
  75 N75          -25.2638     8.7488    -6.8976 N.am    
  76 C76          -26.2027     8.6977    -8.0211 C.3     
  77 C77          -27.0969     7.4639    -7.8828 C.3     
  78 C78          -26.2575     6.2186    -8.0079 C.ar    
  79 C79          -25.6927     5.6498    -6.8816 C.ar    
  80 C80          -24.9227     4.5075    -6.9963 C.ar    
  81 C81          -24.7178     3.9338    -8.2372 C.ar    
  82 C82          -25.2833     4.5021    -9.3633 C.ar    
  83 C83          -26.0569     5.6419    -9.2480 C.ar    
  84 C84          -30.0015    11.1202    -8.0424 C.2     
  85 O85          -30.1315    10.0771    -7.4466 O.2     
  86 N86          -27.9977    10.1117    -8.9682 N.am    
  87 C87          -28.8276    11.3190    -8.9663 C.3     
  88 C88          -29.3348    11.5915   -10.3838 C.3     
  89 C89          -30.0970    12.9179   -10.4066 C.3     
  90 C90          -30.4964    13.2520   -11.8453 C.3     
  91 C91          -30.2680    10.4595   -10.8181 C.3     
  92 O92          -30.9026    12.1019    -7.8813 O.3     
  93 C93            2.2697    -0.8698    -0.1698 C.2     
  94 O94            2.7954     0.1040     0.3265 O.2     
  95 C95           18.5504    -9.8307     2.2441 C.3     
  96 C96           17.7558    -8.5339     2.4110 C.3     
  97 C97           16.3364    -8.7330     1.8758 C.3     
  98 C98           15.5418    -7.4362     2.0427 C.3     
  99 C99           14.1224    -7.6354     1.5075 C.3     
 100 C100          13.3278    -6.3386     1.6743 C.3     
 101 C101          11.9084    -6.5377     1.1392 C.3     
 102 C102          11.1138    -5.2409     1.3060 C.3     
 103 C103           9.6943    -5.4400     0.7708 C.3     
 104 C104           8.8998    -4.1432     0.9377 C.3     
 105 C105           7.4803    -4.3424     0.4025 C.3     
 106 C106           6.6858    -3.0456     0.5694 C.3     
 107 C107           5.2663    -3.2447     0.0342 C.3     
 108 C108           4.4717    -1.9479     0.2011 C.3     
 109 C109           3.0523    -2.1471    -0.3341 C.3     
 110 H110           0.5650    -1.5883    -0.9713 H       
 111 H111           0.5333     0.9318     0.5037 H       
 112 H112          -0.0851     2.2693    -1.4963 H       
 113 H113           2.5500     0.7831    -1.8879 H       
 114 H114           2.1557     2.4231    -2.4565 H       
 115 H115           2.3019     2.0969    -0.7128 H       
 116 H116          -0.8340     0.4453    -2.8447 H       
 117 H117          -1.8123     1.9517     0.2638 H       
 118 H118          -3.7356    -0.1488    -0.5743 H       
 119 H119          -3.9191     1.6868     1.8569 H       
 120 H120          -5.2187     0.6099     1.2917 H       
 121 H121          -3.4706    -1.4119     3.7873 H       
 122 H122          -6.1056     1.1301    -0.6774 H       
 123 H123          -5.7538     3.8789    -1.5981 H       
 124 H124          -6.5967     1.6273    -3.4766 H       
 125 H125          -6.7493     3.3618    -3.8462 H       
 126 H126          -4.3013     3.6373    -3.5639 H       
 127 H127          -4.1487     1.9028    -3.1943 H       
 128 H128          -5.0648     1.3459    -5.4302 H       
 129 H129          -5.2174     3.0804    -5.7997 H       
 130 H130          -2.5453     2.5628    -5.0458 H       
 131 H131          -3.6599     1.6688    -8.7815 H       
 132 H132          -0.9198     2.3381    -6.7714 H       
 133 H133          -1.4023     1.9623    -8.3362 H       
 134 H134          -8.1829     4.4875    -2.6633 H       
 135 H135         -10.2935     3.1220    -1.1974 H       
 136 H136          -9.1913     4.5602     0.5445 H       
 137 H137          -9.5423     5.9860    -0.4615 H       
 138 H138         -11.9843     5.3595    -0.3849 H       
 139 H139         -12.7166     3.6934     1.2600 H       
 140 H140         -11.5917     2.9332     0.1090 H       
 141 H141         -11.0296     3.3847     1.7364 H       
 142 H142         -11.0285     7.0388     1.1691 H       
 143 H143         -12.3197     6.1009     1.9574 H       
 144 H144         -10.6134     5.7419     2.3153 H       
 145 H145         -12.4890     4.1648    -1.7445 H       
 146 H146         -12.4169     6.0651    -3.9607 H       
 147 H147         -13.3026     3.1685    -4.3271 H       
 148 H148         -13.6066     4.4739    -5.4984 H       
 149 H149         -11.1658     4.8625    -5.6988 H       
 150 H150         -10.8618     3.5572    -4.5275 H       
 151 H151         -11.9689     1.9381    -6.0445 H       
 152 H152         -12.2729     3.2434    -7.2158 H       
 153 H153          -9.5083     3.1896    -6.6409 H       
 154 H154          -8.7450     1.0129    -9.2647 H       
 155 H155         -12.0236     1.2323    -8.1694 H       
 156 H156         -11.0028     0.4806    -9.2720 H       
 157 H157         -14.9563     6.1081    -4.8620 H       
 158 H158         -16.8244     5.4715    -2.7097 H       
 159 H159         -16.2109     8.3433    -3.5376 H       
 160 H160         -17.6034     7.8543    -2.5425 H       
 161 H161         -16.0606     6.8914    -0.8569 H       
 162 H162         -14.6681     7.3804    -1.8521 H       
 163 H163         -15.3623     9.7529    -1.6574 H       
 164 H164         -16.7548     9.2639    -0.6623 H       
 165 H165         -15.2119     8.3010     1.0233 H       
 166 H166         -13.8195     8.7901     0.0281 H       
 167 H167         -14.3022    10.4097     1.7406 H       
 168 H168         -14.6048    11.0794     0.2487 H       
 169 H169         -19.1419     6.5909    -3.5092 H       
 170 H170         -19.2713     6.7220    -6.4236 H       
 171 H171         -20.6036     4.4850    -4.8331 H       
 172 H172         -20.9620     4.8669    -6.5342 H       
 173 H173         -19.1801     4.1254    -8.3373 H       
 174 H174         -17.0748     2.6940    -8.2556 H       
 175 H175         -15.3428     1.5727    -6.2553 H       
 176 H176         -15.0818     1.4675    -3.8172 H       
 177 H177         -16.6843     2.6027    -2.3388 H       
 178 H178         -18.5637     3.8532    -3.2760 H       
 179 H179         -21.9120     6.8214    -6.9524 H       
 180 H180         -22.8268     9.1458    -5.6346 H       
 181 H181         -23.6265     7.7343    -4.9022 H       
 182 H182         -25.4759     9.2766    -6.1119 H       
 183 H183         -25.6467     8.6405    -8.9569 H       
 184 H184         -27.5853     7.4766    -6.9085 H       
 185 H185         -27.8526     7.4731    -8.6682 H       
 186 H186         -25.8528     6.0981    -5.9122 H       
 187 H187         -24.4809     4.0636    -6.1165 H       
 188 H188         -24.1156     3.0418    -8.3269 H       
 189 H189         -25.1230     4.0541   -10.3328 H       
 190 H190         -26.5018     6.0838   -10.1274 H       
 191 H191         -28.1257     9.4363    -9.6525 H       
 192 H192         -28.2348    12.1669    -8.6232 H       
 193 H193         -28.4882    11.6471   -11.0682 H       
 194 H194         -30.9927    12.8329    -9.7913 H       
 195 H195         -29.4598    13.7099   -10.0132 H       
 196 H196         -31.0394    14.1969   -11.8615 H       
 197 H197         -29.6007    13.3370   -12.4606 H       
 198 H198         -31.1336    12.4599   -12.2387 H       
 199 H199         -30.6293    10.6536   -11.8279 H       
 200 H200         -29.7250     9.5145   -10.8018 H       
 201 H201         -31.1146    10.4038   -10.1337 H       
 202 H202         -31.6383    11.9279    -7.2784 H       
 203 H203          18.0614   -10.6306     2.8001 H       
 204 H204          18.5943   -10.0966     1.1880 H       
 205 H205          19.5617    -9.6888     2.6254 H       
 206 H206          17.7120    -8.2680     3.4671 H       
 207 H207          18.2449    -7.7340     1.8550 H       
 208 H208          16.3803    -8.9989     0.8196 H       
 209 H209          15.8474    -9.5329     2.4318 H       
 210 H210          15.4979    -7.1703     3.0988 H       
 211 H211          16.0309    -6.6364     1.4866 H       
 212 H212          14.1663    -7.9013     0.4513 H       
 213 H213          13.6333    -8.4352     2.0635 H       
 214 H214          13.2839    -6.0727     2.7305 H       
 215 H215          13.8169    -5.5387     1.1183 H       
 216 H216          11.9522    -6.8036     0.0830 H       
 217 H217          11.4193    -7.3376     1.6952 H       
 218 H218          11.0699    -4.9750     2.3622 H       
 219 H219          11.6028    -4.4410     0.7500 H       
 220 H220           9.7382    -5.7059    -0.2853 H       
 221 H221           9.2053    -6.2399     1.3269 H       
 222 H222           8.8559    -3.8774     1.9939 H       
 223 H223           9.3888    -3.3434     0.3817 H       
 224 H224           7.5242    -4.6083    -0.6536 H       
 225 H225           6.9913    -5.1422     0.9585 H       
 226 H226           6.6419    -2.7797     1.6255 H       
 227 H227           7.1748    -2.2457     0.0134 H       
 228 H228           5.3102    -3.5106    -1.0220 H       
 229 H229           4.7773    -4.0446     0.5902 H       
 230 H230           4.4279    -1.6820     1.2572 H       
 231 H231           4.9608    -1.1481    -0.3550 H       
 232 H232           2.5632    -2.9469     0.2219 H       
 233 H233           3.0962    -2.4130    -1.3903 H       
@<TRIPOS>BOND
   1    1    2 2
   2    1    4 1
   3    1   10 am
   4    3   93 am
   5    3    4 1
   6    3  110 1
   7    4    5 1
   8    4  111 1
   9    5    6 1
  10    5    7 1
  11    5  112 1
  12    6  113 1
  13    6  114 1
  14    6  115 1
  15    7  116 1
  16    8    9 2
  17    8   11 1
  18    8   18 am
  19   10   11 1
  20   10  117 1
  21   11   12 1
  22   11  118 1
  23   12   13 1
  24   12  119 1
  25   12  120 1
  26   13   14 2
  27   13   15 1
  28   15  121 1
  29   16   17 2
  30   16   19 1
  31   16   29 am
  32   18   19 1
  33   18  122 1
  34   19   20 1
  35   19  123 1
  36   20   21 1
  37   20  124 1
  38   20  125 1
  39   21   22 1
  40   21  126 1
  41   21  127 1
  42   22   23 1
  43   22  128 1
  44   22  129 1
  45   23   24 1
  46   23  130 1
  47   24   25 2
  48   24   26 1
  49   25  131 1
  50   26  132 1
  51   26  133 1
  52   27   28 2
  53   27   30 1
  54   27   37 am
  55   29   30 1
  56   29  134 1
  57   30   31 1
  58   30  135 1
  59   31   32 1
  60   31  136 1
  61   31  137 1
  62   32   33 1
  63   32   34 1
  64   32  138 1
  65   33  139 1
  66   33  140 1
  67   33  141 1
  68   34  142 1
  69   34  143 1
  70   34  144 1
  71   35   36 2
  72   35   38 1
  73   35   48 am
  74   37   38 1
  75   37  145 1
  76   38   39 1
  77   38  146 1
  78   39   40 1
  79   39  147 1
  80   39  148 1
  81   40   41 1
  82   40  149 1
  83   40  150 1
  84   41   42 1
  85   41  151 1
  86   41  152 1
  87   42   43 1
  88   42  153 1
  89   43   44 2
  90   43   45 1
  91   44  154 1
  92   45  155 1
  93   45  156 1
  94   46   47 2
  95   46   49 1
  96   46   57 am
  97   48   49 1
  98   48  157 1
  99   49   50 1
 100   49  158 1
 101   50   51 1
 102   50  159 1
 103   50  160 1
 104   51   52 1
 105   51  161 1
 106   51  162 1
 107   52   53 1
 108   52  163 1
 109   52  164 1
 110   53   54 1
 111   53  165 1
 112   53  166 1
 113   54  167 1
 114   54  168 1
 115   55   56 2
 116   55   58 1
 117   55   71 am
 118   57   58 1
 119   57  169 1
 120   58   59 1
 121   58  170 1
 122   59   60 1
 123   59  171 1
 124   59  172 1
 125   60   61 2
 126   60   68 1
 127   61   62 1
 128   61  173 1
 129   62   63 1
 130   62  174 1
 131   63   64 ar
 132   63   68 ar
 133   64   65 ar
 134   64  175 1
 135   65   66 ar
 136   65  176 1
 137   66   67 ar
 138   66  177 1
 139   67   68 ar
 140   67  178 1
 141   69   70 2
 142   69   72 1
 143   69   75 am
 144   71   72 1
 145   71  179 1
 146   72  180 1
 147   72  181 1
 148   73   74 2
 149   73   76 1
 150   73   86 am
 151   75   76 1
 152   75  182 1
 153   76   77 1
 154   76  183 1
 155   77   78 1
 156   77  184 1
 157   77  185 1
 158   78   79 ar
 159   78   83 ar
 160   79   80 ar
 161   79  186 1
 162   80   81 ar
 163   80  187 1
 164   81   82 ar
 165   81  188 1
 166   82   83 ar
 167   82  189 1
 168   83  190 1
 169   84   85 2
 170   84   87 1
 171   84   92 1
 172   86   87 1
 173   86  191 1
 174   87   88 1
 175   87  192 1
 176   88   89 1
 177   88   91 1
 178   88  193 1
 179   89   90 1
 180   89  194 1
 181   89  195 1
 182   90  196 1
 183   90  197 1
 184   90  198 1
 185   91  199 1
 186   91  200 1
 187   91  201 1
 188   92  202 1
 189   93   94 2
 190   93  109 1
 191   95   96 1
 192   95  203 1
 193   95  204 1
 194   95  205 1
 195   96   97 1
 196   96  206 1
 197   96  207 1
 198   97   98 1
 199   97  208 1
 200   97  209 1
 201   98   99 1
 202   98  210 1
 203   98  211 1
 204   99  100 1
 205   99  212 1
 206   99  213 1
 207  100  101 1
 208  100  214 1
 209  100  215 1
 210  101  102 1
 211  101  216 1
 212  101  217 1
 213  102  103 1
 214  102  218 1
 215  102  219 1
 216  103  104 1
 217  103  220 1
 218  103  221 1
 219  104  105 1
 220  104  222 1
 221  104  223 1
 222  105  106 1
 223  105  224 1
 224  105  225 1
 225  106  107 1
 226  106  226 1
 227  106  227 1
 228  107  108 1
 229  107  228 1
 230  107  229 1
 231  108  109 1
 232  108  230 1
 233  108  231 1
 234  109  232 1
 235  109  233 1

#	End of record

