#	Name: ASD01841083
#	Creating user name:	WinNT
#	Creation time:	15. 06. 2019 19:38

#	Modifying user name:	WinNT
#	Modification time:	15. 06. 2019 19:38

#	Program:	/corina/corina34_cracker 3.40 0067  02.08.2006

@<TRIPOS>MOLECULE
ASD01841083
  39   41    0    0    0
SMALL
NO_CHARGES


@<TRIPOS>ATOM
   1 C1            -0.2342     1.4161     0.2995 C.ar    
   2 C2            -0.2532     0.0188     0.3719 C.ar    
   3 C3             0.9222    -0.6498     0.7827 C.ar    
   4 C4             2.0351     0.0985     1.0941 C.ar    
   5 C5             1.9762     1.4807     0.9977 C.ar    
   6 N6             0.8769     2.0874     0.6153 N.ar    
   7 C7            -1.5424    -0.5350    -0.0064 C.2     
   8 C8            -2.4648     0.3969    -0.3516 C.2     
   9 S9            -1.8033     2.0147    -0.2259 S.3     
  10 C10           -3.7906     0.1016    -0.7568 C.2     
  11 O11           -4.1670    -1.0552    -0.8121 O.2     
  12 N12           -4.6346     1.1012    -1.0809 N.am    
  13 C13            3.1943     2.2998     1.3386 C.3     
  14 C14            0.9566    -2.1534     0.8785 C.3     
  15 C15           -6.0049     0.7960    -1.4996 C.3     
  16 C16           -6.7349     2.0789    -1.8032 C.ar    
  17 C17           -6.7073     2.6036    -3.0817 C.ar    
  18 C18           -7.3783     3.7820    -3.3604 C.ar    
  19 C19           -8.0767     4.4336    -2.3577 C.ar    
  20 C20           -8.1029     3.9072    -1.0804 C.ar    
  21 C21           -7.4366     2.7275    -0.8045 C.ar    
  22 F22           -7.3516     4.2960    -4.6095 F       
  23 N23           -1.8060    -1.8975    -0.0141 N.pl3   
  24 H24            2.9464    -0.3869     1.4110 H       
  25 H25           -4.3348     2.0226    -1.0368 H       
  26 H26            3.7986     2.4424     0.4427 H       
  27 H27            2.8831     3.2703     1.7251 H       
  28 H28            3.7824     1.7792     2.0944 H       
  29 H29            1.1670    -2.5754    -0.1042 H       
  30 H30            1.7362    -2.4552     1.5780 H       
  31 H31           -0.0085    -2.5171     1.2311 H       
  32 H32           -5.9813     0.1713    -2.3926 H       
  33 H33           -6.5200     0.2656    -0.6987 H       
  34 H34           -6.1620     2.0947    -3.8628 H       
  35 H35           -8.6003     5.3531    -2.5738 H       
  36 H36           -8.6474     4.4153    -0.2982 H       
  37 H37           -7.4614     2.3144     0.1931 H       
  38 H38           -1.0758    -2.5325    -0.0813 H       
  39 H39           -2.7206    -2.2149     0.0478 H       
@<TRIPOS>BOND
   1    1    2 ar
   2    1    6 ar
   3    1    9 1
   4    2    3 ar
   5    2    7 1
   6    3    4 ar
   7    3   14 1
   8    4    5 ar
   9    4   24 1
  10    5    6 ar
  11    5   13 1
  12    7    8 2
  13    7   23 1
  14    8    9 1
  15    8   10 1
  16   10   11 2
  17   10   12 am
  18   12   15 1
  19   12   25 1
  20   13   26 1
  21   13   27 1
  22   13   28 1
  23   14   29 1
  24   14   30 1
  25   14   31 1
  26   15   16 1
  27   15   32 1
  28   15   33 1
  29   16   17 ar
  30   16   21 ar
  31   17   18 ar
  32   17   34 1
  33   18   19 ar
  34   18   22 1
  35   19   20 ar
  36   19   35 1
  37   20   21 ar
  38   20   36 1
  39   21   37 1
  40   23   38 1
  41   23   39 1

#	End of record

