#	Name: ASD00170197
#	Creating user name:	WinNT
#	Creation time:	15. 06. 2019 18:31

#	Modifying user name:	WinNT
#	Modification time:	15. 06. 2019 18:31

#	Program:	/corina/corina34_cracker 3.40 0067  02.08.2006

@<TRIPOS>MOLECULE
ASD00170197
  40   42    0    0    0
SMALL
NO_CHARGES


@<TRIPOS>ATOM
   1 C1            -0.0142     1.3327    -0.1103 C.2     
   2 C2             0.0057    -0.0013    -0.1406 C.2     
   3 C3            -1.3204    -0.5794     0.0263 C.2     
   4 C4            -2.3072     0.3601     0.1717 C.2     
   5 S5            -1.6528     1.9297     0.1174 S.3     
   6 C6             1.2018     2.2259    -0.2456 C.3     
   7 C7             2.0523     1.7757    -1.4321 C.3     
   8 C8             3.0749     0.7476    -0.9563 C.3     
   9 C9             2.4801    -0.0898     0.1738 C.3     
  10 C10            1.2553    -0.8424    -0.3372 C.3     
  11 N11           -3.6461     0.0728     0.3425 N.pl3   
  12 C12           -1.5739    -2.0197     0.0367 C.2     
  13 C13           -1.8292    -2.7351    -1.2328 C.ar    
  14 O14           -1.5749    -2.6300     1.0904 O.2     
  15 C15           -1.9614    -4.1236    -1.2394 C.ar    
  16 C16           -2.2008    -4.7864    -2.4315 C.ar    
  17 C17           -2.3081    -4.0697    -3.6155 C.ar    
  18 C18           -2.1772    -2.6930    -3.6105 C.ar    
  19 C19           -1.9444    -2.0222    -2.4276 C.ar    
  20 O20           -2.3303    -6.1393    -2.4423 O.3     
  21 C21           -2.5762    -6.7574    -3.7070 C.3     
  22 H22            0.8789     3.2552    -0.4019 H       
  23 H23            1.7953     2.1695     0.6669 H       
  24 H24            1.4107     1.3270    -2.1905 H       
  25 H25            2.5708     2.6359    -1.8555 H       
  26 H26            3.3460     0.0953    -1.7864 H       
  27 H27            3.9654     1.2624    -0.5956 H       
  28 H28            3.2241    -0.8041     0.5266 H       
  29 H29            2.1877     0.5645     0.9951 H       
  30 H30            1.1511    -1.7782     0.2120 H       
  31 H31            1.3814    -1.0601    -1.3977 H       
  32 H32           -3.9558    -0.8449     0.2897 H       
  33 H33           -4.2775     0.7886     0.5154 H       
  34 H34           -1.8771    -4.6801    -0.3176 H       
  35 H35           -2.4941    -4.5891    -4.5440 H       
  36 H36           -2.2613    -2.1409    -4.5349 H       
  37 H37           -1.8426    -0.9470    -2.4272 H       
  38 H38           -1.7523    -6.5366    -4.3857 H       
  39 H39           -2.6585    -7.8361    -3.5744 H       
  40 H40           -3.5054    -6.3709    -4.1258 H       
@<TRIPOS>BOND
   1    1    2 2
   2    1    6 1
   3    1    5 1
   4    2    3 1
   5    2   10 1
   6    3    4 2
   7    3   12 1
   8    4    5 1
   9    4   11 1
  10    6    7 1
  11    6   22 1
  12    6   23 1
  13    7    8 1
  14    7   24 1
  15    7   25 1
  16    8    9 1
  17    8   26 1
  18    8   27 1
  19    9   10 1
  20    9   28 1
  21    9   29 1
  22   10   30 1
  23   10   31 1
  24   11   32 1
  25   11   33 1
  26   12   13 1
  27   12   14 2
  28   13   15 ar
  29   13   19 ar
  30   15   16 ar
  31   15   34 1
  32   16   17 ar
  33   16   20 1
  34   17   18 ar
  35   17   35 1
  36   18   19 ar
  37   18   36 1
  38   19   37 1
  39   20   21 1
  40   21   38 1
  41   21   39 1
  42   21   40 1

#	End of record

