#	Name: ASD01911467
#	Creating user name:	WinNT
#	Creation time:	15. 06. 2019 19:57

#	Modifying user name:	WinNT
#	Modification time:	15. 06. 2019 19:57

#	Program:	/corina/corina34_cracker 3.40 0067  02.08.2006

@<TRIPOS>MOLECULE
ASD01911467
  40   41    0    0    0
SMALL
NO_CHARGES


@<TRIPOS>ATOM
   1 O1            -0.0012     1.3380    -0.1569 O.3     
   2 C2             0.0220     0.0019    -0.2193 C.2     
   3 N3             1.2348    -0.5293    -0.0126 N.am    
   4 C4             2.1962     0.5579     0.2269 C.3     
   5 C5             1.3391     1.8345     0.1259 C.3     
   6 O6            -0.9662    -0.6687    -0.4427 O.2     
   7 C7             1.5358    -1.8895    -0.0220 C.ar    
   8 C8             0.5021    -2.8211    -0.0169 C.ar    
   9 C9             0.8073    -4.1676    -0.0264 C.ar    
  10 C10            2.1570    -4.5443    -0.0409 C.ar    
  11 C11            3.1363    -3.5522    -0.0452 C.ar    
  12 N12            2.8015    -2.2779    -0.0413 N.ar    
  13 C13            2.5248    -5.9282    -0.0506 C.1     
  14 C14            2.8264    -7.0628    -0.0586 C.1     
  15 Si15           3.3145    -8.8990    -0.0715 Si      
  16 C16            5.1714    -9.0478    -0.0898 C.3     
  17 C17            2.6397    -9.7317     1.4523 C.3     
  18 C18            2.6109    -9.7179    -1.5898 C.3     
  19 C19            1.8338     2.7237    -1.0167 C.3     
  20 C20            1.3591     2.6001     1.4504 C.3     
  21 H21            2.6350     0.4690     1.2207 H       
  22 H22            2.9733     0.5571    -0.5374 H       
  23 H23           -0.5273    -2.4946    -0.0053 H       
  24 H24            0.0251    -4.9122    -0.0223 H       
  25 H25            4.1797    -3.8308    -0.0563 H       
  26 H26            5.5831    -8.5687     0.7985 H       
  27 H27            5.4514   -10.1012    -0.0972 H       
  28 H28            5.5662    -8.5607    -0.9814 H       
  29 H29            1.5532    -9.6446     1.4630 H       
  30 H30            2.9197   -10.7850     1.4449 H       
  31 H31            3.0513    -9.2525     2.3406 H       
  32 H32            3.0057    -9.2307    -2.4813 H       
  33 H33            2.8908   -10.7713    -1.5972 H       
  34 H34            1.5244    -9.6308    -1.5791 H       
  35 H35            1.1743     3.5856    -1.1180 H       
  36 H36            2.8462     3.0643    -0.7998 H       
  37 H37            1.8333     2.1546    -1.9464 H       
  38 H38            1.0250     1.9442     2.2543 H       
  39 H39            2.3734     2.9412     1.6576 H       
  40 H40            0.6931     3.4604     1.3829 H       
@<TRIPOS>BOND
   1    1    2 1
   2    1    5 1
   3    2    3 am
   4    2    6 2
   5    3    4 1
   6    3    7 1
   7    4    5 1
   8    4   21 1
   9    4   22 1
  10    5   19 1
  11    5   20 1
  12    7    8 ar
  13    7   12 ar
  14    8    9 ar
  15    8   23 1
  16    9   10 ar
  17    9   24 1
  18   10   11 ar
  19   10   13 1
  20   11   12 ar
  21   11   25 1
  22   13   14 3
  23   14   15 1
  24   15   16 1
  25   15   17 1
  26   15   18 1
  27   16   26 1
  28   16   27 1
  29   16   28 1
  30   17   29 1
  31   17   30 1
  32   17   31 1
  33   18   32 1
  34   18   33 1
  35   18   34 1
  36   19   35 1
  37   19   36 1
  38   19   37 1
  39   20   38 1
  40   20   39 1
  41   20   40 1

#	End of record

