#	Name: ASD01883628
#	Creating user name:	WinNT
#	Creation time:	15. 06. 2019 19:46

#	Modifying user name:	WinNT
#	Modification time:	15. 06. 2019 19:46

#	Program:	/corina/corina34_cracker 3.40 0067  02.08.2006

@<TRIPOS>MOLECULE
ASD01883628
  50   53    0    0    0
SMALL
NO_CHARGES


@<TRIPOS>ATOM
   1 C1            -0.4013     0.7210    -1.0993 C.2     
   2 C2             0.0021    -0.0041     0.0020 C.2     
   3 C3            -0.8246    -0.0444     1.1450 C.2     
   4 C4            -1.9964     0.6199     1.1579 C.2     
   5 N5            -2.4052     1.3408     0.0726 N.pl3   
   6 C6            -1.6277     1.4095    -1.0545 C.2     
   7 C7            -3.5281     2.0914    -0.1700 C.2     
   8 C8            -3.4142     2.5870    -1.4201 C.2     
   9 N9            -2.2585     2.1668    -1.9431 N.2     
  10 Cl10           0.5942     0.7893    -2.5199 Cl      
  11 C11           -4.6743     2.3194     0.7815 C.3     
  12 N12            1.2139    -0.6906    -0.0137 N.pl3   
  13 C13            1.2455    -2.1560     0.0884 C.3     
  14 C14            2.1774    -2.5502     1.2386 C.3     
  15 C15            3.5485    -1.9054     1.0229 C.3     
  16 C16            3.4028    -0.3820     1.0197 C.3     
  17 C17            2.4846     0.0364    -0.1387 C.3     
  18 C18            4.4780    -2.3186     2.1348 C.ar    
  19 C19            5.8363    -2.4192     1.8985 C.ar    
  20 C20            6.6890    -2.7982     2.9184 C.ar    
  21 C21            6.1835    -3.0762     4.1746 C.ar    
  22 C22            4.8253    -2.9746     4.4111 C.ar    
  23 C23            3.9731    -2.5914     3.3923 C.ar    
  24 C24           -5.7838     1.3054     0.4959 C.3     
  25 C25           -6.9474     1.5370     1.4619 C.3     
  26 O26            4.0848    -2.3350    -0.2300 O.3     
  27 H27           -0.5169    -0.6100     2.0121 H       
  28 H28           -2.6210     0.5815     2.0381 H       
  29 H29           -4.1358     3.2204    -1.9145 H       
  30 H30           -4.3252     2.1969     1.8068 H       
  31 H31           -5.0619     3.3294     0.6480 H       
  32 H32            0.2412    -2.5302     0.2871 H       
  33 H33            1.6175    -2.5793    -0.8447 H       
  34 H34            1.7568    -2.2036     2.1826 H       
  35 H35            2.2852    -3.6345     1.2641 H       
  36 H36            2.9708    -0.0558     1.9657 H       
  37 H37            4.3829     0.0769     0.8894 H       
  38 H38            2.9599    -0.2085    -1.0885 H       
  39 H39            2.2971     1.1089    -0.0873 H       
  40 H40            6.2313    -2.2020     0.9171 H       
  41 H41            7.7502    -2.8775     2.7337 H       
  42 H42            6.8496    -3.3730     4.9712 H       
  43 H43            4.4303    -3.1921     5.3924 H       
  44 H44            2.9120    -2.5121     3.5771 H       
  45 H45           -6.1329     1.4280    -0.5294 H       
  46 H46           -5.3962     0.2955     0.6294 H       
  47 H47           -7.7379     0.8146     1.2584 H       
  48 H48           -6.5983     1.4144     2.4872 H       
  49 H49           -7.3350     2.5469     1.3284 H       
  50 H50            4.9546    -1.9647    -0.4333 H       
@<TRIPOS>BOND
   1    1    2 2
   2    1   10 1
   3    1    6 1
   4    2    3 1
   5    2   12 1
   6    3    4 2
   7    3   27 1
   8    4    5 1
   9    4   28 1
  10    5    6 1
  11    5    7 1
  12    6    9 2
  13    7    8 2
  14    7   11 1
  15    8    9 1
  16    8   29 1
  17   11   24 1
  18   11   30 1
  19   11   31 1
  20   12   13 1
  21   12   17 1
  22   13   14 1
  23   13   32 1
  24   13   33 1
  25   14   15 1
  26   14   34 1
  27   14   35 1
  28   15   16 1
  29   15   18 1
  30   15   26 1
  31   16   17 1
  32   16   36 1
  33   16   37 1
  34   17   38 1
  35   17   39 1
  36   18   19 ar
  37   18   23 ar
  38   19   20 ar
  39   19   40 1
  40   20   21 ar
  41   20   41 1
  42   21   22 ar
  43   21   42 1
  44   22   23 ar
  45   22   43 1
  46   23   44 1
  47   24   25 1
  48   24   45 1
  49   24   46 1
  50   25   47 1
  51   25   48 1
  52   25   49 1
  53   26   50 1

#	End of record

