#	Name: ASD02908001
#	Creating user name:	WinNT
#	Creation time:	15. 06. 2019 20:26

#	Modifying user name:	WinNT
#	Modification time:	15. 06. 2019 20:26

#	Program:	/corina/corina34_cracker 3.40 0067  02.08.2006

@<TRIPOS>MOLECULE
ASD02908001
  32   32    0    0    0
SMALL
NO_CHARGES


@<TRIPOS>ATOM
   1 P1            -0.0180     1.4758     0.0102 P.3     
   2 O2             0.0021    -0.0041     0.0020 O.2     
   3 O3             1.4924     2.0330    -0.0013 O.3     
   4 O4            -0.7967     2.0091    -1.2942 O.3     
   5 O5            -0.7716     1.9950     1.3348 O.3     
   6 C6            -0.3850     1.6043     2.6538 C.3     
   7 C7            -1.3055     2.2756     3.6750 C.3     
   8 N8            -2.6711     1.7727     3.5064 N.am    
   9 C9            -3.6594     2.2262     4.3026 C.2     
  10 C10           -5.0353     1.7194     4.1327 C.ar    
  11 C11           -6.0613     2.1884     4.9572 C.ar    
  12 C12           -7.3437     1.7135     4.7952 C.ar    
  13 C13           -7.6180     0.7685     3.8135 C.ar    
  14 C14           -6.6001     0.2995     2.9913 C.ar    
  15 C15           -5.3162     0.7737     3.1432 C.ar    
  16 O16           -3.4177     3.0528     5.1608 O.2     
  17 O17           -8.8829     0.3023     3.6576 O.3     
  18 C18           -9.0947    -0.6676     2.6297 C.3     
  19 F19           -8.3069    -1.7956     2.8833 F       
  20 F20          -10.4440    -1.0366     2.6076 F       
  21 F21           -8.7406    -0.1202     1.3919 F       
  22 H22            1.5557     2.9980     0.0033 H       
  23 H23           -0.3973     1.7338    -2.1307 H       
  24 H24           -0.4642     0.5214     2.7499 H       
  25 H25            0.6450     1.9108     2.8364 H       
  26 H26           -0.9567     2.0493     4.6826 H       
  27 H27           -1.2940     3.3546     3.5204 H       
  28 H28           -2.8639     1.1132     2.8217 H       
  29 H29           -5.8488     2.9221     5.7207 H       
  30 H30           -8.1373     2.0755     5.4321 H       
  31 H31           -6.8171    -0.4350     2.2299 H       
  32 H32           -4.5267     0.4118     2.5012 H       
@<TRIPOS>BOND
   1    1    2 2
   2    1    3 1
   3    1    4 1
   4    1    5 1
   5    3   22 1
   6    4   23 1
   7    5    6 1
   8    6    7 1
   9    6   24 1
  10    6   25 1
  11    7    8 1
  12    7   26 1
  13    7   27 1
  14    8    9 am
  15    8   28 1
  16    9   10 1
  17    9   16 2
  18   10   11 ar
  19   10   15 ar
  20   11   12 ar
  21   11   29 1
  22   12   13 ar
  23   12   30 1
  24   13   14 ar
  25   13   17 1
  26   14   15 ar
  27   14   31 1
  28   15   32 1
  29   17   18 1
  30   18   19 1
  31   18   20 1
  32   18   21 1

#	End of record

