#	Name: ASD06042002
#	Creating user name:	WinNT
#	Creation time:	15. 06. 2019 21:04

#	Modifying user name:	WinNT
#	Modification time:	15. 06. 2019 21:04

#	Program:	/corina/corina34_cracker 3.40 0067  02.08.2006

@<TRIPOS>MOLECULE
ASD06042002
  58   61    0    0    0
SMALL
NO_CHARGES


@<TRIPOS>ATOM
   1 C1             0.6475     1.3933    -1.0978 C.ar    
   2 C2             0.6080     0.0057    -1.0701 C.ar    
   3 C3             0.0733    -0.6937    -2.1411 C.ar    
   4 C4            -0.4220    -0.0076    -3.2400 C.ar    
   5 C5            -0.3829     1.3785    -3.2685 C.ar    
   6 C6             0.1462     2.0796    -2.1958 C.ar    
   7 O7             0.0349    -2.0518    -2.1144 O.3     
   8 C8            -0.5296    -2.7074    -3.2517 C.3     
   9 O9            -0.8684     2.0498    -4.3457 O.3     
  10 C10           -1.4042     1.2640    -5.4122 C.3     
  11 N11            1.1864     2.0992    -0.0184 N.pl3   
  12 C12            1.2523     3.4756    -0.0588 C.2     
  13 N13            0.1405     4.1942    -0.2240 N.2     
  14 C14            0.1445     5.5069    -0.2700 C.2     
  15 N15            1.2926     6.2358    -0.1520 N.pl3   
  16 C16            2.4950     5.5928     0.0219 C.2     
  17 C17            2.4898     4.1262     0.0796 C.2     
  18 C18            3.7281     3.3699     0.2628 C.2     
  19 N19            4.9139     4.0104     0.2715 N.am    
  20 O20            3.6877     2.1616     0.4076 O.2     
  21 N21           -1.0422     6.1660    -0.4424 N.pl3   
  22 C22            1.5632     7.5831    -0.1654 C.2     
  23 C23            2.8933     7.7214    -0.0030 C.2     
  24 N24            3.4412     6.5024     0.1088 N.2     
  25 C25           -3.3139     6.2402    -1.3453 C.3     
  26 C26           -3.5856     7.5434    -0.5912 C.3     
  27 C27           -4.1346     7.2225     0.8004 C.3     
  28 C28           -3.1097     6.3901     1.5734 C.3     
  29 C29           -2.8380     5.0869     0.8194 C.3     
  30 C30           -2.2890     5.4078    -0.5722 C.3     
  31 N31           -2.7868     6.5484    -2.6814 N.3     
  32 H32            0.9939    -0.5287    -0.2146 H       
  33 H33           -0.8380    -0.5530    -4.0741 H       
  34 H34            0.1766     3.1589    -2.2181 H       
  35 H35           -1.5638    -2.3876    -3.3792 H       
  36 H36            0.0433    -2.4480    -4.1420 H       
  37 H37           -0.4988    -3.7865    -3.1015 H       
  38 H38           -1.7562     1.9219    -6.2068 H       
  39 H39           -0.6290     0.6049    -5.8029 H       
  40 H40           -2.2362     0.6659    -5.0404 H       
  41 H41            1.5141     1.6206     0.7591 H       
  42 H42            4.9460     4.9730     0.1562 H       
  43 H43            5.7352     3.5088     0.3931 H       
  44 H44           -1.0579     7.1352    -0.4787 H       
  45 H45            0.8449     8.3807    -0.2842 H       
  46 H46            3.4294     8.6583     0.0314 H       
  47 H47           -4.2416     5.6761    -1.4419 H       
  48 H48           -2.6580     8.1075    -0.4946 H       
  49 H49           -4.3158     8.1364    -1.1420 H       
  50 H50           -4.3282     8.1509     1.3376 H       
  51 H51           -5.0623     6.6584     0.7038 H       
  52 H52           -2.1820     6.9542     1.6700 H       
  53 H53           -3.5008     6.1615     2.5648 H       
  54 H54           -2.1078     4.4939     1.3701 H       
  55 H55           -3.7657     4.5228     0.7228 H       
  56 H56           -2.0954     4.4794    -1.1095 H       
  57 H57           -3.4459     7.0979    -3.2122 H       
  58 H58           -1.8943     7.0148    -2.6193 H       
@<TRIPOS>BOND
   1    1    2 ar
   2    1   11 1
   3    1    6 ar
   4    2    3 ar
   5    2   32 1
   6    3    4 ar
   7    3    7 1
   8    4    5 ar
   9    4   33 1
  10    5    6 ar
  11    5    9 1
  12    6   34 1
  13    7    8 1
  14    8   35 1
  15    8   36 1
  16    8   37 1
  17    9   10 1
  18   10   38 1
  19   10   39 1
  20   10   40 1
  21   11   12 1
  22   11   41 1
  23   12   13 1
  24   12   17 2
  25   13   14 2
  26   14   15 1
  27   14   21 1
  28   15   16 1
  29   15   22 1
  30   16   17 1
  31   16   24 2
  32   17   18 1
  33   18   19 am
  34   18   20 2
  35   19   42 1
  36   19   43 1
  37   21   30 1
  38   21   44 1
  39   22   23 2
  40   22   45 1
  41   23   24 1
  42   23   46 1
  43   25   26 1
  44   25   31 1
  45   25   30 1
  46   25   47 1
  47   26   27 1
  48   26   48 1
  49   26   49 1
  50   27   28 1
  51   27   50 1
  52   27   51 1
  53   28   29 1
  54   28   52 1
  55   28   53 1
  56   29   30 1
  57   29   54 1
  58   29   55 1
  59   30   56 1
  60   31   57 1
  61   31   58 1

#	End of record

