#	Name: ASD02408011
#	Creating user name:	WinNT
#	Creation time:	15. 06. 2019 20:20

#	Modifying user name:	WinNT
#	Modification time:	15. 06. 2019 20:20

#	Program:	/corina/corina34_cracker 3.40 0067  02.08.2006

@<TRIPOS>MOLECULE
ASD02408011
  29   30    0    0    0
SMALL
NO_CHARGES


@<TRIPOS>ATOM
   1 C1            -0.0167     1.3781     0.0096 C.ar    
   2 C2             0.0021    -0.0041     0.0020 C.ar    
   3 C3             1.2780     2.1493     0.0014 C.3     
   4 C4             1.6960     2.4140    -1.4221 C.2     
   5 N5             2.8361     3.0955    -1.6501 N.am    
   6 N6             0.9447     1.9710    -2.3927 N.2     
   7 C7             1.2669     2.1762    -3.6771 C.2     
   8 C8             2.4411     2.8850    -3.9864 C.2     
   9 C9             3.2410     3.3506    -2.9119 C.2     
  10 S10            0.2307     1.5641    -4.9641 S.3     
  11 O11            4.2691     3.9705    -3.1233 O.2     
  12 C12           -1.1855    -0.7115     0.0096 C.ar    
  13 C13           -2.3919    -0.0367     0.0253 C.ar    
  14 C14           -2.4106     1.3455     0.0338 C.ar    
  15 C15           -1.2231     2.0530     0.0190 C.ar    
  16 C16           -1.0649     0.7757    -3.9763 C.3     
  17 C17            2.8206     3.1253    -5.3462 C.1     
  18 N18            3.1217     3.3160    -6.4248 N.1     
  19 H19            0.9446    -0.5313    -0.0102 H       
  20 H20            1.1397     3.0971     0.5217 H       
  21 H21            2.0505     1.5679     0.5048 H       
  22 H22            3.3695     3.4053    -0.9015 H       
  23 H23           -1.1709    -1.7913     0.0029 H       
  24 H24           -3.3197    -0.5893     0.0305 H       
  25 H25           -3.3531     1.8728     0.0456 H       
  26 H26           -1.2377     3.1328     0.0257 H       
  27 H27           -1.5419     1.5218    -3.3407 H       
  28 H28           -1.8090     0.3339    -4.6391 H       
  29 H29           -0.6242    -0.0033    -3.3542 H       
@<TRIPOS>BOND
   1    1    2 ar
   2    1    3 1
   3    1   15 ar
   4    2   12 ar
   5    2   19 1
   6    3    4 1
   7    3   20 1
   8    3   21 1
   9    4    5 1
  10    4    6 2
  11    5    9 am
  12    5   22 1
  13    6    7 1
  14    7    8 2
  15    7   10 1
  16    8    9 1
  17    8   17 1
  18    9   11 2
  19   10   16 1
  20   12   13 ar
  21   12   23 1
  22   13   14 ar
  23   13   24 1
  24   14   15 ar
  25   14   25 1
  26   15   26 1
  27   16   27 1
  28   16   28 1
  29   16   29 1
  30   17   18 3

#	End of record

