#	Name: ASD05143286
#	Creating user name:	WinNT
#	Creation time:	15. 06. 2019 20:57

#	Modifying user name:	WinNT
#	Modification time:	15. 06. 2019 20:57

#	Program:	/corina/corina34_cracker 3.40 0067  02.08.2006

@<TRIPOS>MOLECULE
ASD05143286
  48   50    0    0    0
SMALL
NO_CHARGES


@<TRIPOS>ATOM
   1 C1            -0.2461     1.4571     0.0980 C.2     
   2 N2            -0.0147     0.2029    -0.2351 N.2     
   3 S3            -1.5393    -0.5443    -0.3022 S.3     
   4 C4            -2.4138     0.8771     0.1237 C.2     
   5 N5            -1.5023     1.8096     0.2910 N.2     
   6 N6            -3.7833     1.0083     0.2649 N.pl3   
   7 C7            -4.3247     2.2024     0.7496 C.ar    
   8 C8            -5.6233     2.5645     0.4144 C.ar    
   9 C9            -6.1552     3.7447     0.8954 C.ar    
  10 C10           -5.3968     4.5656     1.7099 C.ar    
  11 C11           -4.1038     4.2080     2.0455 C.ar    
  12 C12           -3.5674     3.0267     1.5722 C.ar    
  13 C13            1.2045    -0.3786    -0.4778 C.ar    
  14 C14            1.6074    -1.4932     0.2595 C.ar    
  15 C15            2.0424     0.1395    -1.4667 C.ar    
  16 C16            3.2664    -0.4480    -1.7078 C.ar    
  17 C17            3.6655    -1.5535    -0.9689 C.ar    
  18 C18            2.8330    -2.0747     0.0122 C.ar    
  19 C19            0.8603     2.4296     0.2552 C.ar    
  20 C20            0.6617     3.7732    -0.0614 C.ar    
  21 C21            2.1030     2.0062     0.7258 C.ar    
  22 C22            3.1297     2.9168     0.8701 C.ar    
  23 C23            2.9282     4.2473     0.5490 C.ar    
  24 C24            1.6960     4.6743     0.0871 C.ar    
  25 O25            4.8726    -2.1299    -1.2099 O.3     
  26 C26            5.2206    -3.2641    -0.4133 C.3     
  27 C27           -5.9805     5.8529     2.2325 C.3     
  28 H28           -4.3681     0.2718     0.0275 H       
  29 H29           -6.2160     1.9241    -0.2219 H       
  30 H30           -7.1646     4.0270     0.6349 H       
  31 H31           -3.5142     4.8514     2.6818 H       
  32 H32           -2.5576     2.7481     1.8347 H       
  33 H33            0.9604    -1.8993     1.0229 H       
  34 H34            1.7324     0.9990    -2.0425 H       
  35 H35            3.9154    -0.0478    -2.4727 H       
  36 H36            3.1471    -2.9348     0.5849 H       
  37 H37           -0.2997     4.1077    -0.4224 H       
  38 H38            2.2613     0.9679     0.9772 H       
  39 H39            4.0923     2.5902     1.2348 H       
  40 H40            3.7347     4.9563     0.6639 H       
  41 H41            1.5448     5.7142    -0.1620 H       
  42 H42            5.2374    -2.9781     0.6384 H       
  43 H43            4.4839    -4.0533    -0.5634 H       
  44 H44            6.2058    -3.6261    -0.7072 H       
  45 H45           -6.4737     5.6672     3.1867 H       
  46 H46           -5.1834     6.5832     2.3716 H       
  47 H47           -6.7067     6.2393     1.5173 H       
  48 Br48          11.2058    11.5832     8.1867 Br      
@<TRIPOS>BOND
   1    1    2 2
   2    1   19 1
   3    1    5 1
   4    2    3 1
   5    2   13 1
   6    3    4 1
   7    4    5 2
   8    4    6 1
   9    6    7 1
  10    6   28 1
  11    7    8 ar
  12    7   12 ar
  13    8    9 ar
  14    8   29 1
  15    9   10 ar
  16    9   30 1
  17   10   11 ar
  18   10   27 1
  19   11   12 ar
  20   11   31 1
  21   12   32 1
  22   13   14 ar
  23   13   15 ar
  24   14   18 ar
  25   14   33 1
  26   15   16 ar
  27   15   34 1
  28   16   17 ar
  29   16   35 1
  30   17   18 ar
  31   17   25 1
  32   18   36 1
  33   19   20 ar
  34   19   21 ar
  35   20   24 ar
  36   20   37 1
  37   21   22 ar
  38   21   38 1
  39   22   23 ar
  40   22   39 1
  41   23   24 ar
  42   23   40 1
  43   24   41 1
  44   25   26 1
  45   26   42 1
  46   26   43 1
  47   26   44 1
  48   27   45 1
  49   27   46 1
  50   27   47 1

#	End of record

