#	Name: ASD01913679
#	Creating user name:	WinNT
#	Creation time:	15. 06. 2019 20:02

#	Modifying user name:	WinNT
#	Modification time:	15. 06. 2019 20:02

#	Program:	/corina/corina34_cracker 3.40 0067  02.08.2006

@<TRIPOS>MOLECULE
ASD01913679
  44   46    0    0    0
SMALL
NO_CHARGES


@<TRIPOS>ATOM
   1 C1            -0.0158     1.3145     0.0093 C.ar    
   2 N2             0.0021    -0.0041     0.0020 N.ar    
   3 C3             1.1330    -0.6822    -0.0125 C.ar    
   4 C4             2.3499    -0.0272    -0.0202 C.ar    
   5 C5             2.3711     1.3591    -0.0129 C.ar    
   6 C6             1.1620     2.0375     0.0019 C.ar    
   7 C7             3.6773     2.1107    -0.0204 C.3     
   8 O8             4.0783     2.3555    -1.3700 O.3     
   9 C9             5.2410     3.0264    -1.5542 C.ar    
  10 N10            5.9419     3.4187    -0.5016 N.ar    
  11 C11            7.0772     4.0732    -0.6287 C.ar    
  12 C12            7.5840     4.3785    -1.8922 C.ar    
  13 C13            6.8657     3.9771    -3.0284 C.ar    
  14 C14            5.6843     3.2883    -2.8472 C.ar    
  15 C15            8.8567     5.1133    -2.0314 C.2     
  16 N16            9.5383     5.4946    -0.9330 N.am    
  17 O17            9.2900     5.3746    -3.1369 O.2     
  18 C18           10.8014     6.2238    -1.0711 C.3     
  19 C19           11.0495     7.0572     0.1878 C.3     
  20 C20           12.3686     7.8188     0.0435 C.3     
  21 C21           13.5148     6.8227    -0.1428 C.3     
  22 C22           13.2668     5.9893    -1.4017 C.3     
  23 C23           11.9477     5.2277    -1.2575 C.3     
  24 H24           -0.9618     1.8354     0.0166 H       
  25 H25            1.1079    -1.7619    -0.0180 H       
  26 H26            3.2728    -0.5881    -0.0313 H       
  27 H27            1.1408     3.1173     0.0075 H       
  28 H28            3.5529     3.0606     0.4996 H       
  29 H29            4.4406     1.5178     0.4835 H       
  30 H30            7.6211     4.3770     0.2535 H       
  31 H31            7.2309     4.1980    -4.0205 H       
  32 H32            5.1054     2.9635    -3.6991 H       
  33 H33            9.1926     5.2861    -0.0510 H       
  34 H34           10.7478     6.8824    -1.9381 H       
  35 H35           10.2328     7.7668     0.3205 H       
  36 H36           11.1031     6.3986     1.0547 H       
  37 H37           12.3149     8.4773    -0.8234 H       
  38 H38           12.5453     8.4125     0.9404 H       
  39 H39           14.4546     7.3653    -0.2456 H       
  40 H40           13.5685     6.1641     0.7241 H       
  41 H41           13.2132     6.6479    -2.2686 H       
  42 H42           14.0834     5.2797    -1.5345 H       
  43 H43           12.0013     4.5692    -0.3905 H       
  44 H44           11.7709     4.6340    -2.1543 H       
@<TRIPOS>BOND
   1    1    2 ar
   2    1    6 ar
   3    1   24 1
   4    2    3 ar
   5    3    4 ar
   6    3   25 1
   7    4    5 ar
   8    4   26 1
   9    5    6 ar
  10    5    7 1
  11    6   27 1
  12    7    8 1
  13    7   28 1
  14    7   29 1
  15    8    9 1
  16    9   10 ar
  17    9   14 ar
  18   10   11 ar
  19   11   12 ar
  20   11   30 1
  21   12   13 ar
  22   12   15 1
  23   13   14 ar
  24   13   31 1
  25   14   32 1
  26   15   16 am
  27   15   17 2
  28   16   18 1
  29   16   33 1
  30   18   19 1
  31   18   23 1
  32   18   34 1
  33   19   20 1
  34   19   35 1
  35   19   36 1
  36   20   21 1
  37   20   37 1
  38   20   38 1
  39   21   22 1
  40   21   39 1
  41   21   40 1
  42   22   23 1
  43   22   41 1
  44   22   42 1
  45   23   43 1
  46   23   44 1

#	End of record

