#	Name: ASD01882168
#	Creating user name:	WinNT
#	Creation time:	15. 06. 2019 19:44

#	Modifying user name:	WinNT
#	Modification time:	15. 06. 2019 19:44

#	Program:	/corina/corina34_cracker 3.40 0067  02.08.2006

@<TRIPOS>MOLECULE
ASD01882168
  66   71    0    0    0
SMALL
NO_CHARGES


@<TRIPOS>ATOM
   1 C1             0.1310     1.4265    -0.2195 C.2     
   2 N2             0.2296     0.1133    -0.0630 N.2     
   3 C3             1.4114    -0.4777     0.1417 C.2     
   4 C4             2.5892     0.3100     0.1940 C.2     
   5 C5             2.4760     1.6451     0.0334 C.2     
   6 N6             1.2431     2.1976    -0.1732 N.pl3   
   7 O7            -0.9915     2.1461    -0.4371 O.3     
   8 C8             0.8633     3.6064    -0.3733 C.3     
   9 C9            -0.6640     3.5571    -0.5516 C.3     
  10 O10            1.4759    -1.6892     0.2833 O.2     
  11 C11            3.7012     2.5213     0.0820 C.3     
  12 C12            3.7928     3.3707    -1.1978 C.3     
  13 C13            3.7410     4.8466    -0.7517 C.3     
  14 C14            4.2284     4.8165     0.7181 C.3     
  15 C15            3.5968     3.5106     1.2611 C.3     
  16 C16           -1.0553     4.0870    -1.9326 C.3     
  17 O17           -2.4776     4.0585    -2.0683 O.3     
  18 C18           -2.9940     4.4996    -3.2454 C.ar    
  19 C19           -4.3669     4.4996    -3.4452 C.ar    
  20 C20           -4.8893     4.9485    -4.6427 C.ar    
  21 C21           -4.0453     5.3974    -5.6416 C.ar    
  22 C22           -2.6767     5.3980    -5.4450 C.ar    
  23 C23           -2.1496     4.9559    -4.2471 C.ar    
  24 C24           -3.6396     5.6408    -8.0912 C.3     
  25 C25           -4.1965     6.2837    -9.3594 C.3     
  26 C26           -5.5792     5.7532    -9.7109 C.3     
  27 C27           -6.5363     5.7710    -8.5281 C.3     
  28 C28           -5.9258     5.1701    -7.2671 C.3     
  29 C29           -5.7023     3.6718    -7.4113 C.3     
  30 C30           -4.6407     3.3347    -8.4473 C.3     
  31 C31           -3.3727     4.1581    -8.2847 C.3     
  32 C32           -4.6159     5.8848    -6.9422 C.3     
  33 H33            3.5535    -0.1475     0.3587 H       
  34 H34            1.1291     4.2018     0.5001 H       
  35 H35            1.3381     4.0068    -1.2691 H       
  36 H36           -1.1609     4.1288     0.2322 H       
  37 H37            4.5953     1.9069     0.1872 H       
  38 H38            4.7318     3.1692    -1.7132 H       
  39 H39            2.9511     3.1492    -1.8540 H       
  40 H40            4.4090     5.4535    -1.3629 H       
  41 H41            2.7208     5.2264    -0.8076 H       
  42 H42            5.3164     4.7673     0.7634 H       
  43 H43            3.8567     5.6823     1.2662 H       
  44 H44            2.5534     3.6747     1.5302 H       
  45 H45            4.1597     3.1425     2.1188 H       
  46 H46           -0.7003     5.1117    -2.0425 H       
  47 H47           -0.6042     3.4616    -2.7030 H       
  48 H48           -5.0266     4.1487    -2.6654 H       
  49 H49           -5.9580     4.9484    -4.7989 H       
  50 H50           -2.0194     5.7485    -6.2271 H       
  51 H51           -1.0807     4.9611    -4.0922 H       
  52 H52           -2.6895     6.1398    -7.8439 H       
  53 H53           -4.2502     7.3680    -9.2159 H       
  54 H54           -3.5109     6.0851   -10.1901 H       
  55 H55           -6.0021     6.4166   -10.4920 H       
  56 H56           -5.5218     4.7687   -10.1588 H       
  57 H57           -6.8335     6.8060    -8.3215 H       
  58 H58           -7.4422     5.2113    -8.7881 H       
  59 H59           -6.6236     5.3388    -6.4318 H       
  60 H60           -5.4298     3.2349    -6.4474 H       
  61 H61           -6.6512     3.2046    -7.7178 H       
  62 H62           -4.3659     2.2692    -8.3076 H       
  63 H63           -5.0343     3.4061    -9.4546 H       
  64 H64           -2.7516     4.0269    -9.1849 H       
  65 H65           -2.7899     3.7691    -7.4430 H       
  66 H66           -4.8096     6.9608    -6.8652 H       
@<TRIPOS>BOND
   1    1    2 2
   2    1    6 1
   3    1    7 1
   4    2    3 1
   5    3    4 1
   6    3   10 2
   7    4    5 2
   8    4   33 1
   9    5    6 1
  10    5   11 1
  11    6    8 1
  12    7    9 1
  13    8    9 1
  14    8   34 1
  15    8   35 1
  16    9   16 1
  17    9   36 1
  18   11   12 1
  19   11   15 1
  20   11   37 1
  21   12   13 1
  22   12   38 1
  23   12   39 1
  24   13   14 1
  25   13   40 1
  26   13   41 1
  27   14   15 1
  28   14   42 1
  29   14   43 1
  30   15   44 1
  31   15   45 1
  32   16   17 1
  33   16   46 1
  34   16   47 1
  35   17   18 1
  36   18   19 ar
  37   18   23 ar
  38   19   20 ar
  39   19   48 1
  40   20   21 ar
  41   20   49 1
  42   21   22 ar
  43   21   32 1
  44   22   23 ar
  45   22   50 1
  46   23   51 1
  47   24   25 1
  48   24   31 1
  49   24   32 1
  50   24   52 1
  51   25   26 1
  52   25   53 1
  53   25   54 1
  54   26   27 1
  55   26   55 1
  56   26   56 1
  57   27   28 1
  58   27   57 1
  59   27   58 1
  60   28   29 1
  61   28   32 1
  62   28   59 1
  63   29   30 1
  64   29   60 1
  65   29   61 1
  66   30   31 1
  67   30   62 1
  68   30   63 1
  69   31   64 1
  70   31   65 1
  71   32   66 1

#	End of record

