#	Name: ASD05790045
#	Creating user name:	WinNT
#	Creation time:	15. 06. 2019 21:03

#	Modifying user name:	WinNT
#	Modification time:	15. 06. 2019 21:03

#	Program:	/corina/corina34_cracker 3.40 0067  02.08.2006

@<TRIPOS>MOLECULE
ASD05790045
  42   45    0    0    0
SMALL
NO_CHARGES


@<TRIPOS>ATOM
   1 C1            -0.1753     1.4746    -0.5693 C.2     
   2 C2            -0.1532    -0.0033    -0.5732 C.ar    
   3 C3             0.8977    -0.6871    -1.1869 C.ar    
   4 C4             0.9124    -2.0665    -1.1865 C.ar    
   5 C5            -0.1113    -2.7722    -0.5795 C.ar    
   6 C6            -1.1558    -2.1006     0.0307 C.ar    
   7 C7            -1.1801    -0.7214     0.0420 C.ar    
   8 O8             0.7229     2.0973    -1.1015 O.2     
   9 N9            -1.1942     2.1318     0.0193 N.am    
  10 C10           -1.1619     3.5242     0.1191 C.ar    
  11 C11           -2.3411     4.2544     0.0191 C.ar    
  12 C12           -2.3128     5.6282     0.1176 C.ar    
  13 C13           -1.0980     6.2875     0.3182 C.ar    
  14 C14            0.0844     5.5512     0.4183 C.ar    
  15 C15            0.0486     4.1772     0.3242 C.ar    
  16 O16           -2.1302     8.5754     0.3440 O.3     
  17 C17           -1.0639     7.7607     0.4238 C.2     
  18 N18            0.0114     8.4875     0.6113 N.2     
  19 C19           -0.3499     9.7868     0.6549 C.2     
  20 C20           -1.6952     9.8426     0.4870 C.2     
  21 C21            0.5584    10.9438     0.8507 C.ar    
  22 C22            1.9286    10.7389     1.0109 C.ar    
  23 C23            2.7688    11.8199     1.1928 C.ar    
  24 C24            2.2531    13.1032     1.2166 C.ar    
  25 C25            0.8950    13.3116     1.0587 C.ar    
  26 C26            0.0464    12.2393     0.8695 C.ar    
  27 Cl27           2.5765     9.1286     0.9822 Cl      
  28 H28            1.6971    -0.1374    -1.6614 H       
  29 H29            1.7247    -2.5968    -1.6613 H       
  30 H30           -0.0951    -3.8521    -0.5823 H       
  31 H31           -1.9518    -2.6575     0.5027 H       
  32 H32           -1.9937    -0.1983     0.5225 H       
  33 H33           -1.9499     1.6375     0.3736 H       
  34 H34           -3.2801     3.7440    -0.1364 H       
  35 H35           -3.2289     6.1948     0.0395 H       
  36 H36            1.0254     6.0580     0.5734 H       
  37 H37            0.9621     3.6069     0.4056 H       
  38 H38           -2.3031    10.7351     0.4706 H       
  39 H39            3.8301    11.6629     1.3170 H       
  40 H40            2.9135    13.9457     1.3595 H       
  41 H41            0.4980    14.3158     1.0789 H       
  42 H42           -1.0132    12.4040     0.7412 H       
@<TRIPOS>BOND
   1    1    2 1
   2    1    8 2
   3    1    9 am
   4    2    3 ar
   5    2    7 ar
   6    3    4 ar
   7    3   28 1
   8    4    5 ar
   9    4   29 1
  10    5    6 ar
  11    5   30 1
  12    6    7 ar
  13    6   31 1
  14    7   32 1
  15    9   10 1
  16    9   33 1
  17   10   11 ar
  18   10   15 ar
  19   11   12 ar
  20   11   34 1
  21   12   13 ar
  22   12   35 1
  23   13   14 ar
  24   13   17 1
  25   14   15 ar
  26   14   36 1
  27   15   37 1
  28   16   17 1
  29   16   20 1
  30   17   18 2
  31   18   19 1
  32   19   20 2
  33   19   21 1
  34   20   38 1
  35   21   22 ar
  36   21   26 ar
  37   22   23 ar
  38   22   27 1
  39   23   24 ar
  40   23   39 1
  41   24   25 ar
  42   24   40 1
  43   25   26 ar
  44   25   41 1
  45   26   42 1

#	End of record

