#	Name: ASD01180135
#	Creating user name:	WinNT
#	Creation time:	15. 06. 2019 19:06

#	Modifying user name:	WinNT
#	Modification time:	15. 06. 2019 19:06

#	Program:	/corina/corina34_cracker 3.40 0067  02.08.2006

@<TRIPOS>MOLECULE
ASD01180135
  21   22    0    0    0
SMALL
NO_CHARGES


@<TRIPOS>ATOM
   1 N1            -0.0157     1.3078     0.0092 N.ar    
   2 C2             0.0021    -0.0041     0.0020 C.ar    
   3 C3             1.1963    -0.7205    -0.0132 C.ar    
   4 C4             2.3900    -0.0564    -0.0210 C.ar    
   5 C5             2.3676     1.3509    -0.0132 C.ar    
   6 C6             3.5548     2.1006    -0.0209 C.ar    
   7 C7             3.4912     3.4625    -0.0135 C.ar    
   8 C8             2.2605     4.1208     0.0022 C.ar    
   9 C9             1.0923     3.4240     0.0104 C.ar    
  10 C10            1.1176     2.0182     0.0022 C.ar    
  11 C11            1.1717    -2.2273    -0.0206 C.3     
  12 F12            4.6336     4.1837    -0.0209 F       
  13 O13           -1.2593     1.9850     0.0187 O.3     
  14 H14           -0.9341    -0.5426     0.0084 H       
  15 H15            3.3253    -0.5963    -0.0324 H       
  16 H16            4.5124     1.6014    -0.0323 H       
  17 H17            2.2354     5.2005     0.0082 H       
  18 H18            0.1485     3.9488     0.0232 H       
  19 H19            1.1558    -2.5854    -1.0500 H       
  20 H20            2.0605    -2.6077     0.4827 H       
  21 H21            0.2809    -2.5787     0.5002 H       
@<TRIPOS>BOND
   1    1    2 ar
   2    1   10 ar
   3    1   13 1
   4    2    3 ar
   5    2   14 1
   6    3    4 ar
   7    3   11 1
   8    4    5 ar
   9    4   15 1
  10    5    6 ar
  11    5   10 ar
  12    6    7 ar
  13    6   16 1
  14    7    8 ar
  15    7   12 1
  16    8    9 ar
  17    8   17 1
  18    9   10 ar
  19    9   18 1
  20   11   19 1
  21   11   20 1
  22   11   21 1

#	End of record

