#	Name: ASD00100127
#	Creating user name:	WinNT
#	Creation time:	15. 06. 2019 18:30

#	Modifying user name:	WinNT
#	Modification time:	15. 06. 2019 18:30

#	Program:	/corina/corina34_cracker 3.40 0067  02.08.2006

@<TRIPOS>MOLECULE
ASD00100127
  44   46    0    0    0
SMALL
NO_CHARGES


@<TRIPOS>ATOM
   1 N1            -0.1278     1.5390     0.3495 N.pl3   
   2 C2            -0.0195     0.1695     0.1739 C.2     
   3 N3             1.0998    -0.4995     0.0294 N.2     
   4 C4             0.8210    -1.8060    -0.1163 C.2     
   5 C5            -0.5126    -1.9619    -0.0617 C.2     
   6 N6            -1.0554    -0.7110     0.1279 N.pl3   
   7 S7             2.0019    -3.0941    -0.3416 S.o2    
   8 O8             1.3159    -4.1595    -0.9846 O.2     
   9 O9             3.1657    -2.4819    -0.8800 O.2     
  10 C10            2.4444    -3.6818     1.2595 C.ar    
  11 C11            1.7319    -4.7159     1.8375 C.ar    
  12 C12            2.0791    -5.1769     3.0936 C.ar    
  13 C13            3.1389    -4.6042     3.7716 C.ar    
  14 C14            3.5170    -5.1065     5.1412 C.3     
  15 C15            3.8522    -3.5711     3.1930 C.ar    
  16 C16            3.5075    -3.1127     1.9353 C.ar    
  17 C17           -2.4790    -0.3888     0.2535 C.3     
  18 C18           -3.0265     0.0019    -1.0951 C.ar    
  19 C19           -3.4535    -0.9767    -1.9812 C.ar    
  20 C20           -3.9569    -0.6139    -3.2217 C.ar    
  21 C21           -4.0319     0.7205    -3.5721 C.ar    
  22 C22           -3.6054     1.6936    -2.6877 C.ar    
  23 C23           -3.1088     1.3348    -1.4479 C.ar    
  24 O24           -3.3783    -2.2886    -1.6344 O.3     
  25 C25           -3.8359    -3.2412    -2.5963 C.3     
  26 H26            0.6717     2.0829     0.4259 H       
  27 H27           -1.0031     1.9548     0.3921 H       
  28 H28           -1.0551    -2.8919    -0.1466 H       
  29 H29            0.9039    -5.1633     1.3078 H       
  30 H30            1.5220    -5.9844     3.5455 H       
  31 H31            4.2489    -5.9085     5.0448 H       
  32 H32            3.9468    -4.2902     5.7217 H       
  33 H33            2.6288    -5.4842     5.6476 H       
  34 H34            4.6805    -3.1239     3.7226 H       
  35 H35            4.0669    -2.3077     1.4819 H       
  36 H36           -3.0173    -1.2605     0.6255 H       
  37 H37           -2.6038     0.4400     0.9503 H       
  38 H38           -4.2896    -1.3738    -3.9133 H       
  39 H39           -4.4238     1.0036    -4.5379 H       
  40 H40           -3.6642     2.7361    -2.9637 H       
  41 H41           -2.7807     2.0971    -0.7568 H       
  42 H42           -4.8870    -3.0568    -2.8186 H       
  43 H43           -3.2491    -3.1456    -3.5099 H       
  44 H44           -3.7208    -4.2477    -2.1941 H       
@<TRIPOS>BOND
   1    1    2 1
   2    1   26 1
   3    1   27 1
   4    2    3 2
   5    2    6 1
   6    3    4 1
   7    4    5 2
   8    4    7 1
   9    5    6 1
  10    5   28 1
  11    6   17 1
  12    7    8 2
  13    7    9 2
  14    7   10 1
  15   10   11 ar
  16   10   16 ar
  17   11   12 ar
  18   11   29 1
  19   12   13 ar
  20   12   30 1
  21   13   14 1
  22   13   15 ar
  23   14   31 1
  24   14   32 1
  25   14   33 1
  26   15   16 ar
  27   15   34 1
  28   16   35 1
  29   17   18 1
  30   17   36 1
  31   17   37 1
  32   18   19 ar
  33   18   23 ar
  34   19   20 ar
  35   19   24 1
  36   20   21 ar
  37   20   38 1
  38   21   22 ar
  39   21   39 1
  40   22   23 ar
  41   22   40 1
  42   23   41 1
  43   24   25 1
  44   25   42 1
  45   25   43 1
  46   25   44 1

#	End of record

