#	Name: ASD05730168
#	Creating user name:	WinNT
#	Creation time:	15. 06. 2019 21:02

#	Modifying user name:	WinNT
#	Modification time:	15. 06. 2019 21:02

#	Program:	/corina/corina34_cracker 3.40 0067  02.08.2006

@<TRIPOS>MOLECULE
ASD05730168
  60   63    0    0    0
SMALL
NO_CHARGES


@<TRIPOS>ATOM
   1 N1            -0.0170     1.4000     0.0097 N.pl3   
   2 C2             0.6151    -0.7207     1.0351 C.ar    
   3 C3             2.1279     1.8722     1.0337 C.ar    
   4 N4             1.1276    -0.0927     2.1304 N.2     
   5 C5             1.7893     1.0101     2.1758 C.2     
   6 N6             2.2230     1.4230     3.4151 N.pl3   
   7 C7             1.9245     0.6172     4.6016 C.3     
   8 C8             0.0021    -0.0041     0.0020 C.ar    
   9 C9            -0.5848    -0.6815    -1.0536 C.ar    
  10 C10           -0.5268    -2.0639    -1.1144 C.ar    
  11 C11            0.1218    -2.7761    -0.1211 C.ar    
  12 C12            0.6914    -2.1127     0.9508 C.ar    
  13 C13            1.2027     2.0788     0.0017 C.ar    
  14 C14            3.3723     2.5006     0.9760 C.ar    
  15 C15            3.6696     3.3482    -0.0738 C.ar    
  16 C16            2.7360     3.5811    -1.0691 C.ar    
  17 C17            1.5066     2.9484    -1.0337 C.ar    
  18 Cl18           5.2203     4.1253    -0.1445 Cl      
  19 F19            0.1993    -4.1226    -0.1986 F       
  20 C20           -1.2849     2.1339     0.0198 C.3     
  21 C21           -1.7194     2.3815     1.4657 C.3     
  22 C22            2.9651     0.8728     5.7237 C.3     
  23 C23            2.1752     0.5460     7.0086 C.3     
  24 N24            0.7464     0.6757     6.6875 N.am    
  25 C25            0.6141     1.0903     5.2789 C.3     
  26 C26           -0.2736     0.4517     7.5394 C.2     
  27 O27           -1.4208     0.5900     7.1634 O.2     
  28 O28           -0.0215     0.0748     8.8071 O.3     
  29 C29           -1.1686    -0.1489     9.6688 C.3     
  30 C30           -2.0429    -1.2561     9.0769 C.3     
  31 C31           -0.6877    -0.5675    11.0597 C.3     
  32 C32           -1.9837     1.1412     9.7780 C.3     
  33 H33            2.7262     2.2476     3.5029 H       
  34 H34            1.8742    -0.4421     4.3493 H       
  35 H35           -1.0900    -0.1296    -1.8324 H       
  36 H36           -0.9890    -2.5870    -1.9385 H       
  37 H37            1.1959    -2.6725     1.7244 H       
  38 H38            4.1027     2.3249     1.7518 H       
  39 H39            2.9687     4.2594    -1.8767 H       
  40 H40            0.7825     3.1324    -1.8136 H       
  41 H41           -1.1559     3.0889    -0.4895 H       
  42 H42           -2.0476     1.5484    -0.4936 H       
  43 H43           -1.8483     1.4265     1.9750 H       
  44 H44           -0.9566     2.9670     1.9791 H       
  45 H45           -2.6627     2.9276     1.4732 H       
  46 H46            3.8200     0.2053     5.6162 H       
  47 H47            3.2854     1.9147     5.7225 H       
  48 H48            2.3923    -0.4733     7.3280 H       
  49 H49            2.4432     1.2489     7.7974 H       
  50 H50            0.5212     2.1741     5.2096 H       
  51 H51           -0.2470     0.6047     4.8198 H       
  52 H52           -1.4622    -2.1752     8.9991 H       
  53 H53           -2.9040    -1.4240     9.7238 H       
  54 H54           -2.3855    -0.9579     8.0860 H       
  55 H55           -0.0647     0.2213    11.4814 H       
  56 H56           -1.5487    -0.7354    11.7065 H       
  57 H57           -0.1069    -1.4866    10.9819 H       
  58 H58           -2.3264     1.4395     8.7871 H       
  59 H59           -2.8448     0.9733    10.4249 H       
  60 H60           -1.3608     1.9301    10.1997 H       
@<TRIPOS>BOND
   1    1    8 1
   2    1   13 1
   3    1   20 1
   4    2    4 1
   5    2    8 ar
   6    2   12 ar
   7    3    5 1
   8    3   14 ar
   9    3   13 ar
  10    4    5 2
  11    5    6 1
  12    6    7 1
  13    6   33 1
  14    7   22 1
  15    7   25 1
  16    7   34 1
  17    8    9 ar
  18    9   10 ar
  19    9   35 1
  20   10   11 ar
  21   10   36 1
  22   11   12 ar
  23   11   19 1
  24   12   37 1
  25   13   17 ar
  26   14   15 ar
  27   14   38 1
  28   15   16 ar
  29   15   18 1
  30   16   17 ar
  31   16   39 1
  32   17   40 1
  33   20   21 1
  34   20   41 1
  35   20   42 1
  36   21   43 1
  37   21   44 1
  38   21   45 1
  39   22   23 1
  40   22   46 1
  41   22   47 1
  42   23   24 1
  43   23   48 1
  44   23   49 1
  45   24   25 1
  46   24   26 am
  47   25   50 1
  48   25   51 1
  49   26   27 2
  50   26   28 1
  51   28   29 1
  52   29   30 1
  53   29   31 1
  54   29   32 1
  55   30   52 1
  56   30   53 1
  57   30   54 1
  58   31   55 1
  59   31   56 1
  60   31   57 1
  61   32   58 1
  62   32   59 1
  63   32   60 1

#	End of record

