#	Name: ASD01152479
#	Creating user name:	WinNT
#	Creation time:	15. 06. 2019 19:05

#	Modifying user name:	WinNT
#	Modification time:	15. 06. 2019 19:05

#	Program:	/corina/corina34_cracker 3.40 0067  02.08.2006

@<TRIPOS>MOLECULE
ASD01152479
  49   51    0    0    0
SMALL
NO_CHARGES


@<TRIPOS>ATOM
   1 C1             0.1107     1.1569    -0.6965 C.2     
   2 N2             0.0184    -0.1438    -0.6179 N.2     
   3 N3            -1.1208    -0.7663    -0.1081 N.am    
   4 C4            -2.2618    -0.0996     0.1332 C.2     
   5 C5            -2.3931     1.3532    -0.2595 C.3     
   6 C6            -1.0091     1.9734    -0.2041 C.2     
   7 C7            -2.9569     1.4574    -1.6780 C.3     
   8 O8            -0.8367     3.0970     0.2214 O.2     
   9 C9            -1.0736    -2.1392     0.1619 C.ar    
  10 O10           -3.1905    -0.6665     0.6685 O.2     
  11 C11           -3.2001     2.9055    -2.0168 C.ar    
  12 C12           -0.0101    -2.6697     0.8787 C.ar    
  13 C13           -2.0943    -2.9704    -0.2825 C.ar    
  14 C14           -2.0494    -4.3253    -0.0164 C.ar    
  15 C15           -0.9885    -4.8585     0.6937 C.ar    
  16 C16            0.0336    -4.0301     1.1451 C.ar    
  17 C17           -2.1999     3.6546    -2.6078 C.ar    
  18 C18           -4.4254     3.4833    -1.7416 C.ar    
  19 C19           -4.6485     4.8117    -2.0524 C.ar    
  20 C20           -3.6462     5.5624    -2.6378 C.ar    
  21 C21           -2.4230     4.9829    -2.9185 C.ar    
  22 F22           -0.9475    -6.1838     0.9528 F       
  23 N23            1.1054    -4.5690     1.8677 N.am    
  24 C24            1.7698    -3.8055     2.7576 C.2     
  25 O25            1.5003    -2.6279     2.8670 O.2     
  26 C26            2.8477    -4.4147     3.6167 C.3     
  27 O27            1.2204     1.7434    -1.2172 O.3     
  28 C28            2.2629     0.8753    -1.6663 C.3     
  29 C29           -3.8896     7.0104    -2.9770 C.3     
  30 F30           -3.5314     7.8112    -1.8873 F       
  31 F31           -3.1189     7.3647    -4.0895 F       
  32 F32           -5.2447     7.1995    -3.2692 F       
  33 H33           -3.0536     1.8662     0.4395 H       
  34 H34           -2.2432     1.0339    -2.3847 H       
  35 H35           -3.8963     0.9077    -1.7370 H       
  36 H36            0.7822    -2.0243     1.2282 H       
  37 H37           -2.9241    -2.5569    -0.8365 H       
  38 H38           -2.8440    -4.9694    -0.3629 H       
  39 H39           -1.2439     3.2020    -2.8265 H       
  40 H40           -5.2085     2.8969    -1.2843 H       
  41 H41           -5.6061     5.2630    -1.8381 H       
  42 H42           -1.6399     5.5694    -3.3759 H       
  43 H43            1.3695    -5.4918     1.7277 H       
  44 H44            2.9468    -5.4738     3.3786 H       
  45 H45            3.7941    -3.9091     3.4252 H       
  46 H46            2.5816    -4.3020     4.6677 H       
  47 H47            2.6160     0.2696    -0.8317 H       
  48 H48            1.8800     0.2238    -2.4518 H       
  49 H49            3.0878     1.4705    -2.0579 H       
@<TRIPOS>BOND
   1    1    2 2
   2    1   27 1
   3    1    6 1
   4    2    3 1
   5    3    4 am
   6    3    9 1
   7    4    5 1
   8    4   10 2
   9    5    6 1
  10    5    7 1
  11    5   33 1
  12    6    8 2
  13    7   11 1
  14    7   34 1
  15    7   35 1
  16    9   12 ar
  17    9   13 ar
  18   11   17 ar
  19   11   18 ar
  20   12   16 ar
  21   12   36 1
  22   13   14 ar
  23   13   37 1
  24   14   15 ar
  25   14   38 1
  26   15   16 ar
  27   15   22 1
  28   16   23 1
  29   17   21 ar
  30   17   39 1
  31   18   19 ar
  32   18   40 1
  33   19   20 ar
  34   19   41 1
  35   20   21 ar
  36   20   29 1
  37   21   42 1
  38   23   24 am
  39   23   43 1
  40   24   25 2
  41   24   26 1
  42   26   44 1
  43   26   45 1
  44   26   46 1
  45   27   28 1
  46   28   47 1
  47   28   48 1
  48   28   49 1
  49   29   30 1
  50   29   31 1
  51   29   32 1

#	End of record

