#	Name: ASD01150366
#	Creating user name:	WinNT
#	Creation time:	15. 06. 2019 19:04

#	Modifying user name:	WinNT
#	Modification time:	15. 06. 2019 19:04

#	Program:	/corina/corina34_cracker 3.40 0067  02.08.2006

@<TRIPOS>MOLECULE
ASD01150366
  47   49    0    0    0
SMALL
NO_CHARGES


@<TRIPOS>ATOM
   1 C1             1.8775     1.4503     0.9304 C.ar    
   2 C2             2.1249     0.0961     0.8177 C.ar    
   3 C3             1.4568    -0.6549    -0.1307 C.ar    
   4 C4             0.5341    -0.0496    -0.9744 C.ar    
   5 C5             0.2831     1.3106    -0.8639 C.ar    
   6 C6             0.9552     2.0619     0.0897 C.ar    
   7 N7             0.7047     3.4337     0.2047 N.am    
   8 C8            -0.5688     3.8525     0.2697 C.2     
   9 N9            -0.8696     5.1620     0.3815 N.am    
  10 C10            0.1430     6.0592     0.4278 C.2     
  11 C11            1.5223     5.5407     0.3523 C.2     
  12 N12            1.7028     4.2408     0.2491 N.2     
  13 O13           -0.0766     7.2515     0.5278 O.2     
  14 C14           -2.2643     5.6051     0.4509 C.3     
  15 O15           -1.4680     3.0359     0.2265 O.2     
  16 N16           -0.1412    -0.8107    -1.9350 N.am    
  17 C17           -0.5059    -2.0779    -1.6562 C.2     
  18 C18           -1.3219    -2.8632    -2.6504 C.3     
  19 O19           -0.1773    -2.5862    -0.6052 O.2     
  20 C20           -2.7079     5.6441     1.8906 C.ar    
  21 C21           -2.5459     6.7993     2.6324 C.ar    
  22 C22           -2.9525     6.8357     3.9529 C.ar    
  23 C23           -3.5218     5.7157     4.5322 C.ar    
  24 C24           -3.6837     4.5598     3.7893 C.ar    
  25 C25           -3.2818     4.5264     2.4673 C.ar    
  26 Cl26          -4.0323     5.7604     6.1909 Cl      
  27 C27            2.6736     6.4582     0.3967 C.2     
  28 O28            3.9278     5.9696     0.3267 O.3     
  29 O29            2.4928     7.6557     0.4966 O.2     
  30 C30            5.0139     6.9319     0.3764 C.3     
  31 H31            2.3980     2.0336     1.6755 H       
  32 H32            2.8423    -0.3769     1.4719 H       
  33 H33            1.6526    -1.7135    -0.2163 H       
  34 H34           -0.4336     1.7836    -1.5190 H       
  35 H35           -2.3511     6.6011     0.0168 H       
  36 H36           -2.8942     4.9104    -0.1047 H       
  37 H37           -0.3469    -0.4263    -2.8015 H       
  38 H38           -0.6547    -3.3972    -3.3270 H       
  39 H39           -1.9505    -3.5786    -2.1202 H       
  40 H40           -1.9508    -2.1816    -3.2232 H       
  41 H41           -2.1011     7.6734     2.1802 H       
  42 H42           -2.8256     7.7381     4.5324 H       
  43 H43           -4.1280     3.6852     4.2410 H       
  44 H44           -3.4081     3.6242     1.8872 H       
  45 H45            5.9673     6.4076     0.3109 H       
  46 H46            4.9229     7.6260    -0.4592 H       
  47 H47            4.9670     7.4847     1.3146 H       
@<TRIPOS>BOND
   1    1    2 ar
   2    1    6 ar
   3    1   31 1
   4    2    3 ar
   5    2   32 1
   6    3    4 ar
   7    3   33 1
   8    4    5 ar
   9    4   16 1
  10    5    6 ar
  11    5   34 1
  12    6    7 1
  13    7    8 am
  14    7   12 1
  15    8    9 am
  16    8   15 2
  17    9   10 am
  18    9   14 1
  19   10   11 1
  20   10   13 2
  21   11   12 2
  22   11   27 1
  23   14   20 1
  24   14   35 1
  25   14   36 1
  26   16   17 am
  27   16   37 1
  28   17   18 1
  29   17   19 2
  30   18   38 1
  31   18   39 1
  32   18   40 1
  33   20   21 ar
  34   20   25 ar
  35   21   22 ar
  36   21   41 1
  37   22   23 ar
  38   22   42 1
  39   23   24 ar
  40   23   26 1
  41   24   25 ar
  42   24   43 1
  43   25   44 1
  44   27   28 1
  45   27   29 2
  46   28   30 1
  47   30   45 1
  48   30   46 1
  49   30   47 1

#	End of record

