#	Name: ASD03430072
#	Creating user name:	WinNT
#	Creation time:	15. 06. 2019 20:40

#	Modifying user name:	WinNT
#	Modification time:	15. 06. 2019 20:40

#	Program:	/corina/corina34_cracker 3.40 0067  02.08.2006

@<TRIPOS>MOLECULE
ASD03430072
  35   39    0    0    0
SMALL
NO_CHARGES


@<TRIPOS>ATOM
   1 C1            -0.0167     1.3805     0.0096 C.ar    
   2 C2             0.0021    -0.0041     0.0020 C.ar    
   3 C3             1.2036    -0.6811    -0.0122 C.ar    
   4 C4             2.4094     0.0135    -0.0077 C.ar    
   5 C5             2.3875     1.4049    -0.0061 C.ar    
   6 C6             1.1840     2.0868     0.0020 C.ar    
   7 O7             3.4720    -0.8415     0.0083 O.3     
   8 C8             1.5519    -2.1452    -0.0460 C.3     
   9 C9             3.0391    -2.1454    -0.4250 C.3     
  10 C10            0.4184    -3.8570     1.0053 C.ar    
  11 C11            1.3087    -2.8196     1.2714 C.ar    
  12 C12            0.7221    -2.9045    -1.0410 C.2     
  13 N13            0.0957    -3.8800    -0.3536 N.am    
  14 O14            0.6327    -2.6830    -2.2302 O.2     
  15 C15            1.7702    -2.6027     2.5511 C.ar    
  16 C16            1.3480    -3.4181     3.5877 C.ar    
  17 C17            0.4637    -4.4501     3.3344 C.ar    
  18 C18           -0.0004    -4.6716     2.0541 C.ar    
  19 Br19           2.9805    -1.1905     2.8926 Br      
  20 O20           -1.0495     2.2735     0.0298 O.3     
  21 C21           -0.4664     3.5264     0.4342 C.3     
  22 O22            0.9022     3.4230     0.0040 O.3     
  23 C23           -0.8177    -4.8513    -0.9608 C.3     
  24 H24           -0.9266    -0.5553     0.0076 H       
  25 H25            3.3163     1.9561    -0.0113 H       
  26 H26            3.1640    -2.2565    -1.5021 H       
  27 H27            3.5750    -2.9289     0.1107 H       
  28 H28            1.7088    -3.2485     4.5914 H       
  29 H29            0.1342    -5.0860     4.1428 H       
  30 H30           -0.6912    -5.4799     1.8647 H       
  31 H31           -0.9645     4.3588    -0.0630 H       
  32 H32           -0.5166     3.6404     1.5171 H       
  33 H33           -1.8345    -4.4595    -0.9345 H       
  34 H34           -0.5235    -5.0292    -1.9952 H       
  35 H35           -0.7745    -5.7877    -0.4046 H       
@<TRIPOS>BOND
   1    1    2 ar
   2    1    6 ar
   3    1   20 1
   4    2    3 ar
   5    2   24 1
   6    3    4 ar
   7    3    8 1
   8    4    5 ar
   9    4    7 1
  10    5    6 ar
  11    5   25 1
  12    6   22 1
  13    7    9 1
  14    8    9 1
  15    8   11 1
  16    8   12 1
  17    9   26 1
  18    9   27 1
  19   10   11 ar
  20   10   13 1
  21   10   18 ar
  22   11   15 ar
  23   12   13 am
  24   12   14 2
  25   13   23 1
  26   15   16 ar
  27   15   19 1
  28   16   17 ar
  29   16   28 1
  30   17   18 ar
  31   17   29 1
  32   18   30 1
  33   20   21 1
  34   21   22 1
  35   21   31 1
  36   21   32 1
  37   23   33 1
  38   23   34 1
  39   23   35 1

#	End of record

