#	Name: ASD08178227
#	Creating user name:	WinNT
#	Creation time:	15. 06. 2019 21:18

#	Modifying user name:	WinNT
#	Modification time:	15. 06. 2019 21:18

#	Program:	/corina/corina34_cracker 3.40 0067  02.08.2006

@<TRIPOS>MOLECULE
ASD08178227
  68   71    0    0    0
SMALL
NO_CHARGES


@<TRIPOS>ATOM
   1 C1            -0.6591    -0.3796    -1.4002 C.ar    
   2 C2            -0.7834    -1.8657    -1.1834 C.3     
   3 C3            -1.5955    -2.1297     0.0862 C.3     
   4 C4            -1.7218    -3.6385     0.3064 C.3     
   5 C5            -2.5339    -3.9024     1.5759 C.3     
   6 C6            -2.6582    -5.3885     1.7928 C.2     
   7 N7            -1.8413    -6.1331     2.4680 N.2     
   8 N8            -2.1205    -7.3625     2.5337 N.2     
   9 C9            -3.1926    -7.7708     1.9246 C.2     
  10 S10           -3.9467    -6.4253     1.1791 S.3     
  11 N11           -3.6548    -9.0820     1.8883 N.am    
  12 C12           -2.9717   -10.0551     2.5230 C.2     
  13 C13           -3.4725   -11.4759     2.4837 C.3     
  14 O14           -1.9539    -9.7873     3.1258 O.2     
  15 C15           -2.5352   -12.3607     3.2647 C.ar    
  16 C16           -2.7466   -12.5674     4.6155 C.ar    
  17 C17           -1.8895   -13.3777     5.3340 C.ar    
  18 C18           -0.8147   -13.9855     4.6983 C.ar    
  19 C19           -0.6055   -13.7762     3.3415 C.ar    
  20 C20           -1.4690   -12.9686     2.6276 C.ar    
  21 C21            0.5943     0.1985    -1.5400 C.ar    
  22 C22            0.6613     1.5693    -1.7378 C.ar    
  23 C23           -0.5358     2.2811    -1.7838 C.ar    
  24 N24           -1.6862     1.6405    -1.6399 N.ar    
  25 N25           -1.7417     0.3705    -1.4626 N.ar    
  26 N26           -0.5226     3.6616    -1.9801 N.am    
  27 C27           -1.6817     4.3308    -2.1386 C.2     
  28 C28           -1.6762     5.8345    -2.2373 C.3     
  29 O29           -2.7292     3.7228    -2.2019 O.2     
  30 C30           -3.0884     6.3318    -2.4095 C.ar    
  31 C31           -3.8533     6.6383    -1.2996 C.ar    
  32 C32           -3.6168     6.4869    -3.6774 C.ar    
  33 C33           -4.9121     6.9430    -3.8353 C.ar    
  34 C34           -5.6792     7.2437    -2.7254 C.ar    
  35 C35           -5.1487     7.0945    -1.4576 C.ar    
  36 N36            0.0558   -14.8066     5.4235 N.am    
  37 C37           -0.4119   -15.5442     6.4500 C.2     
  38 C38            0.5428   -16.3384     7.3037 C.3     
  39 O39           -1.6013   -15.5689     6.6866 O.2     
  40 H40           -1.2881    -2.3166    -2.0378 H       
  41 H41            0.2098    -2.3017    -1.0765 H       
  42 H42           -1.0908    -1.6788     0.9406 H       
  43 H43           -2.5888    -1.6937    -0.0207 H       
  44 H44           -2.2265    -4.0894    -0.5481 H       
  45 H45           -0.7285    -4.0744     0.4132 H       
  46 H46           -2.0292    -3.4515     2.4304 H       
  47 H47           -3.5271    -3.4664     1.4691 H       
  48 H48           -4.4688    -9.2962     1.4062 H       
  49 H49           -4.4682   -11.5225     2.9248 H       
  50 H50           -3.5169   -11.8170     1.4495 H       
  51 H51           -3.5826   -12.0945     5.1093 H       
  52 H52           -2.0547   -13.5383     6.3892 H       
  53 H53            0.2295   -14.2474     2.8443 H       
  54 H54           -1.3070   -12.8057     1.5724 H       
  55 H55            1.4913    -0.4013    -1.4957 H       
  56 H56            1.6115     2.0697    -1.8522 H       
  57 H57            0.3207     4.1403    -2.0025 H       
  58 H58           -1.2508     6.2568    -1.3269 H       
  59 H59           -1.0763     6.1402    -3.0945 H       
  60 H60           -3.4391     6.5211    -0.3092 H       
  61 H61           -3.0175     6.2519    -4.5446 H       
  62 H62           -5.3247     7.0648    -4.8260 H       
  63 H63           -6.6910     7.6005    -2.8488 H       
  64 H64           -5.7480     7.3294    -0.5904 H       
  65 H65            0.9958   -14.8450     5.1875 H       
  66 H66            1.5607   -16.1931     6.9418 H       
  67 H67            0.4730   -16.0004     8.3376 H       
  68 H68            0.2853   -17.3962     7.2490 H       
@<TRIPOS>BOND
   1    1    2 1
   2    1   21 ar
   3    1   25 ar
   4    2    3 1
   5    2   40 1
   6    2   41 1
   7    3    4 1
   8    3   42 1
   9    3   43 1
  10    4    5 1
  11    4   44 1
  12    4   45 1
  13    5    6 1
  14    5   46 1
  15    5   47 1
  16    6    7 2
  17    6   10 1
  18    7    8 1
  19    8    9 2
  20    9   10 1
  21    9   11 1
  22   11   12 am
  23   11   48 1
  24   12   13 1
  25   12   14 2
  26   13   15 1
  27   13   49 1
  28   13   50 1
  29   15   16 ar
  30   15   20 ar
  31   16   17 ar
  32   16   51 1
  33   17   18 ar
  34   17   52 1
  35   18   19 ar
  36   18   36 1
  37   19   20 ar
  38   19   53 1
  39   20   54 1
  40   21   22 ar
  41   21   55 1
  42   22   23 ar
  43   22   56 1
  44   23   24 ar
  45   23   26 1
  46   24   25 ar
  47   26   27 am
  48   26   57 1
  49   27   28 1
  50   27   29 2
  51   28   30 1
  52   28   58 1
  53   28   59 1
  54   30   31 ar
  55   30   32 ar
  56   31   35 ar
  57   31   60 1
  58   32   33 ar
  59   32   61 1
  60   33   34 ar
  61   33   62 1
  62   34   35 ar
  63   34   63 1
  64   35   64 1
  65   36   37 am
  66   36   65 1
  67   37   38 1
  68   37   39 2
  69   38   66 1
  70   38   67 1
  71   38   68 1

#	End of record

