#	Name: ASD01881916
#	Creating user name:	WinNT
#	Creation time:	15. 06. 2019 19:43

#	Modifying user name:	WinNT
#	Modification time:	15. 06. 2019 19:43

#	Program:	/corina/corina34_cracker 3.40 0067  02.08.2006

@<TRIPOS>MOLECULE
ASD01881916
  51   54    0    0    0
SMALL
NO_CHARGES


@<TRIPOS>ATOM
   1 N1             1.7332    -0.9265     2.3296 N.pl3   
   2 N2             2.2196    -2.0978     2.5548 N.2     
   3 N3             3.4866    -2.1388     2.3343 N.2     
   4 C4             3.9070    -0.9227     1.9314 C.ar    
   5 C5             2.7590    -0.1079     1.9226 C.ar    
   6 C6             5.1404    -0.3800     1.5609 C.ar    
   7 C7             5.2146     0.9484     1.1914 C.ar    
   8 C8             4.0714     1.7443     1.1869 C.ar    
   9 C9             2.8590     1.2253     1.5464 C.ar    
  10 O10            6.4115     1.4833     0.8302 O.3     
  11 C11            6.4199     2.8632     0.4589 C.3     
  12 C12            7.8436     3.2827     0.0873 C.3     
  13 N13            8.2583     2.5794    -1.1339 N.3     
  14 C14            9.5918     3.0189    -1.5677 C.3     
  15 C15           10.0196     2.2081    -2.7933 C.3     
  16 N16            9.0329     2.3906    -3.8669 N.3     
  17 C17            7.6994     1.9510    -3.4331 C.3     
  18 C18            7.2716     2.7619    -2.2076 C.3     
  19 C19            9.4477     1.6872    -5.0881 C.3     
  20 C20            9.1705     0.1905    -4.9337 C.3     
  21 F21            7.7895    -0.0237    -4.8685 F       
  22 F22            9.6977    -0.4972    -6.0320 F       
  23 F23            9.7707    -0.2762    -3.7594 F       
  24 C24            0.3287    -0.5365     2.4758 C.3     
  25 C25            0.0845    -0.0343     3.9003 C.3     
  26 C26           -1.2998     0.5325     4.2220 C.3     
  27 C27           -0.8848    -0.8326     4.7744 C.3     
  28 Br28           6.6953    -1.4561     1.5660 Br      
  29 H29            4.1437     2.7819     0.8961 H       
  30 H30            1.9794     1.8519     1.5388 H       
  31 H31            5.7618     3.0132    -0.3969 H       
  32 H32            6.0702     3.4669     1.2964 H       
  33 H33            7.8719     4.3586    -0.0857 H       
  34 H34            8.5218     3.0277     0.9016 H       
  35 H35            9.5598     4.0776    -1.8252 H       
  36 H36           10.3069     2.8622    -0.7602 H       
  37 H37           10.9960     2.5523    -3.1343 H       
  38 H38           10.0779     1.1523    -2.5285 H       
  39 H39            6.9843     2.1078    -4.2407 H       
  40 H40            7.7314     0.8923    -3.1757 H       
  41 H41            6.2952     2.4177    -1.8666 H       
  42 H42            7.2133     3.8176    -2.4723 H       
  43 H43            8.8870     2.0747    -5.9388 H       
  44 H44           10.5135     1.8442    -5.2536 H       
  45 H45            0.0962     0.2573     1.7659 H       
  46 H46           -0.3099    -1.3978     2.2798 H       
  47 H47            0.9428     0.4253     4.3903 H       
  48 H48           -1.3521     1.3647     4.9240 H       
  49 H49           -2.0365     0.5476     3.4188 H       
  50 H50           -1.3485    -1.7156     4.3346 H       
  51 H51           -0.6641    -0.8986     5.8398 H       
@<TRIPOS>BOND
   1    1    2 1
   2    1    5 1
   3    1   24 1
   4    2    3 2
   5    3    4 1
   6    4    5 ar
   7    4    6 ar
   8    5    9 ar
   9    6    7 ar
  10    6   28 1
  11    7    8 ar
  12    7   10 1
  13    8    9 ar
  14    8   29 1
  15    9   30 1
  16   10   11 1
  17   11   12 1
  18   11   31 1
  19   11   32 1
  20   12   13 1
  21   12   33 1
  22   12   34 1
  23   13   14 1
  24   13   18 1
  25   14   15 1
  26   14   35 1
  27   14   36 1
  28   15   16 1
  29   15   37 1
  30   15   38 1
  31   16   17 1
  32   16   19 1
  33   17   18 1
  34   17   39 1
  35   17   40 1
  36   18   41 1
  37   18   42 1
  38   19   20 1
  39   19   43 1
  40   19   44 1
  41   20   21 1
  42   20   22 1
  43   20   23 1
  44   24   25 1
  45   24   45 1
  46   24   46 1
  47   25   26 1
  48   25   27 1
  49   25   47 1
  50   26   27 1
  51   26   48 1
  52   26   49 1
  53   27   50 1
  54   27   51 1

#	End of record

