#	Name: ASD04430049
#	Creating user name:	WinNT
#	Creation time:	15. 06. 2019 20:49

#	Modifying user name:	WinNT
#	Modification time:	15. 06. 2019 20:49

#	Program:	/corina/corina34_cracker 3.40 0067  02.08.2006

@<TRIPOS>MOLECULE
ASD04430049
  19   20    0    0    0
SMALL
NO_CHARGES


@<TRIPOS>ATOM
   1 C1            -0.0189     1.5448     0.0105 C.3     
   2 C2             0.0021    -0.0041     0.0020 C.3     
   3 O3             1.4062    -0.3900    -0.0177 O.3     
   4 C4             2.1661     0.6283     0.4218 C.2     
   5 C5             1.4799     1.9142    -0.0018 C.3     
   6 C6            -0.6568     1.9792    -1.3230 C.3     
   7 C7            -1.5301     0.7690    -1.7373 C.3     
   8 C8            -0.6564    -0.4400    -1.3232 C.3     
   9 O9             3.2009     0.5370     1.0388 O.2     
  10 H10           -0.5393     1.9500     0.8784 H       
  11 H11           -0.5130    -0.4161     0.8698 H       
  12 H12            1.7952     2.2052    -1.0038 H       
  13 H13            1.6845     2.7116     0.7126 H       
  14 H14           -1.2757     2.8649    -1.1794 H       
  15 H15            0.1134     2.1679    -2.0709 H       
  16 H16           -2.4737     0.7687    -1.1918 H       
  17 H17           -1.7046     0.7690    -2.8133 H       
  18 H18            0.1038    -0.6368    -2.0791 H       
  19 H19           -1.2770    -1.3224    -1.1675 H       
@<TRIPOS>BOND
   1    1    2 1
   2    1    5 1
   3    1    6 1
   4    1   10 1
   5    2    3 1
   6    2    8 1
   7    2   11 1
   8    3    4 1
   9    4    5 1
  10    4    9 2
  11    5   12 1
  12    5   13 1
  13    6    7 1
  14    6   14 1
  15    6   15 1
  16    7    8 1
  17    7   16 1
  18    7   17 1
  19    8   18 1
  20    8   19 1

#	End of record

