#	Name: ASD02038625
#	Creating user name:	WinNT
#	Creation time:	15. 06. 2019 20:17

#	Modifying user name:	WinNT
#	Modification time:	15. 06. 2019 20:17

#	Program:	/corina/corina34_cracker 3.40 0067  02.08.2006

@<TRIPOS>MOLECULE
ASD02038625
  62   63    0    0    0
SMALL
NO_CHARGES


@<TRIPOS>ATOM
   1 C1            -3.0391    -3.5941    -2.6620 C.ar    
   2 C2            -4.4020    -3.7840    -2.5107 C.ar    
   3 C3            -5.1280    -2.9485    -1.6807 C.ar    
   4 C4            -4.4927    -1.9252    -1.0032 C.ar    
   5 C5            -3.1315    -1.7353    -1.1547 C.ar    
   6 C6            -2.4036    -2.5728    -1.9786 C.ar    
   7 C7            -5.2839    -1.0154    -0.0992 C.3     
   8 C8            -5.3048    -1.5954     1.3165 C.3     
   9 N9            -6.0761    -0.7085     2.1977 N.3     
  10 C10           -6.3199    -1.3427     3.5001 C.3     
  11 C11           -7.4185    -2.3977     3.3560 C.3     
  12 C12           -7.5909    -3.1391     4.6832 C.3     
  13 C13           -8.6896    -4.1942     4.5391 C.3     
  14 C14           -8.8593    -4.9244     5.8464 C.ar    
  15 C15           -9.7555    -4.4534     6.7884 C.ar    
  16 C16           -8.1228    -6.0672     6.0989 C.ar    
  17 C17           -8.2759    -6.7389     7.2958 C.ar    
  18 C18           -9.1711    -6.2653     8.2466 C.ar    
  19 C19           -9.9135    -5.1202     7.9874 C.ar    
  20 N20           -9.3284    -6.9422     9.4582 N.am    
  21 S21           -8.1557    -6.8388    10.6228 S.o2    
  22 O22           -8.6575    -7.6234    11.6961 O.2     
  23 O23           -6.9587    -7.2007     9.9479 O.2     
  24 C24           -8.1236    -5.0832    11.0784 C.3     
  25 Cl25          -2.1266    -4.6416    -3.7032 Cl      
  26 Cl26          -5.1998    -5.0693    -3.3623 Cl      
  27 C27           -5.4030     0.5869     2.3607 C.3     
  28 C28           -6.3887     1.6048     2.9378 C.3     
  29 C29           -5.7281     2.9840     2.9856 C.3     
  30 C30           -6.7139     4.0019     3.5628 C.3     
  31 H31           -6.1914    -3.0959    -1.5624 H       
  32 H32           -2.6360    -0.9350    -0.6251 H       
  33 H33           -1.3405    -2.4239    -2.0965 H       
  34 H34           -4.8207    -0.0289    -0.0808 H       
  35 H35           -6.3046    -0.9306    -0.4722 H       
  36 H36           -5.7680    -2.5819     1.2981 H       
  37 H37           -4.2841    -1.6802     1.6895 H       
  38 H38           -5.4035    -1.8179     3.8501 H       
  39 H39           -6.6345    -0.5864     4.2193 H       
  40 H40           -8.3562    -1.9114     3.0871 H       
  41 H41           -7.1408    -3.1075     2.5768 H       
  42 H42           -6.6532    -3.6255     4.9522 H       
  43 H43           -7.8687    -2.4294     5.4625 H       
  44 H44           -9.6273    -3.7078     4.2702 H       
  45 H45           -8.4118    -4.9039     3.7599 H       
  46 H46          -10.3321    -3.5629     6.5863 H       
  47 H47           -7.4273    -6.4351     5.3591 H       
  48 H48           -7.7006    -7.6316     7.4922 H       
  49 H49          -10.6101    -4.7491     8.7246 H       
  50 H50          -10.1247    -7.4728     9.6175 H       
  51 H51           -9.1238    -4.7663    11.3739 H       
  52 H52           -7.4352    -4.9363    11.9106 H       
  53 H53           -7.7927    -4.4922    10.2244 H       
  54 H54           -4.5578     0.4743     3.0397 H       
  55 H55           -5.0464     0.9356     1.3915 H       
  56 H56           -7.2765     1.6489     2.3070 H       
  57 H57           -6.6738     1.3034     3.9458 H       
  58 H58           -4.8403     2.9400     3.6165 H       
  59 H59           -5.4430     3.2855     1.9777 H       
  60 H60           -7.6017     4.0460     2.9319 H       
  61 H61           -6.9990     3.7005     4.5707 H       
  62 H62           -6.2432     4.9845     3.5968 H       
@<TRIPOS>BOND
   1    1    2 ar
   2    1   25 1
   3    1    6 ar
   4    2    3 ar
   5    2   26 1
   6    3    4 ar
   7    3   31 1
   8    4    5 ar
   9    4    7 1
  10    5    6 ar
  11    5   32 1
  12    6   33 1
  13    7    8 1
  14    7   34 1
  15    7   35 1
  16    8    9 1
  17    8   36 1
  18    8   37 1
  19    9   10 1
  20    9   27 1
  21   10   11 1
  22   10   38 1
  23   10   39 1
  24   11   12 1
  25   11   40 1
  26   11   41 1
  27   12   13 1
  28   12   42 1
  29   12   43 1
  30   13   14 1
  31   13   44 1
  32   13   45 1
  33   14   15 ar
  34   14   16 ar
  35   15   19 ar
  36   15   46 1
  37   16   17 ar
  38   16   47 1
  39   17   18 ar
  40   17   48 1
  41   18   19 ar
  42   18   20 1
  43   19   49 1
  44   20   21 am
  45   20   50 1
  46   21   22 2
  47   21   23 2
  48   21   24 1
  49   24   51 1
  50   24   52 1
  51   24   53 1
  52   27   28 1
  53   27   54 1
  54   27   55 1
  55   28   29 1
  56   28   56 1
  57   28   57 1
  58   29   30 1
  59   29   58 1
  60   29   59 1
  61   30   60 1
  62   30   61 1
  63   30   62 1

#	End of record

