#	Name: ASD01813876
#	Creating user name:	WinNT
#	Creation time:	15. 06. 2019 19:31

#	Modifying user name:	WinNT
#	Modification time:	15. 06. 2019 19:31

#	Program:	/corina/corina34_cracker 3.40 0067  02.08.2006

@<TRIPOS>MOLECULE
ASD01813876
  55   58    0    0    0
SMALL
NO_CHARGES


@<TRIPOS>ATOM
   1 C1             0.0658     1.4980    -0.0181 C.2     
   2 C2             0.0554     0.0967    -0.0283 C.2     
   3 C3             1.2379    -0.5835    -0.0358 C.2     
   4 C4             2.4465     0.1325    -0.0331 C.2     
   5 N5             2.4272     1.5008    -0.0227 N.am    
   6 C6             1.2393     2.1699    -0.0156 C.2     
   7 C7             3.6631    -0.5642    -0.0407 C.2     
   8 C8             4.8428     0.1218    -0.0378 C.2     
   9 C9             4.8192     1.5288    -0.0276 C.2     
  10 C10            3.5797     2.2006    -0.0197 C.2     
  11 O11            3.5498     3.4196    -0.0113 O.2     
  12 C12            6.0712     2.2886    -0.0238 C.2     
  13 O13            6.0417     3.6372    -0.0140 O.3     
  14 O14            7.1377     1.7036    -0.0294 O.2     
  15 C15            3.6680    -2.0711    -0.0516 C.3     
  16 N16            3.7874    -2.5504    -1.4351 N.3     
  17 C17            4.0335    -3.9988    -1.4712 C.3     
  18 C18            4.0722    -4.4708    -2.9266 C.3     
  19 N19            5.1256    -3.7424    -3.6473 N.3     
  20 C20            4.8795    -2.2940    -3.6111 C.3     
  21 C21            4.8409    -1.8220    -2.1557 C.3     
  22 C22            5.2395    -4.1995    -4.9668 C.ar    
  23 C23            5.6745    -5.4982    -5.2203 C.ar    
  24 C24            5.7852    -5.9461    -6.5264 C.ar    
  25 C25            5.4636    -5.1032    -7.5767 C.ar    
  26 C26            5.0317    -3.8123    -7.3245 C.ar    
  27 C27            4.9138    -3.3616    -6.0230 C.ar    
  28 O28            5.9905    -6.3248    -4.1874 O.3     
  29 F29            5.5720    -5.5413    -8.8501 F       
  30 C30            6.4294    -7.6429    -4.5222 C.3     
  31 C31            6.7364    -8.4192    -3.2401 C.3     
  32 F32            5.5813    -8.4979    -2.4547 F       
  33 F33            7.1661    -9.7096    -3.5679 F       
  34 F34            7.7424    -7.7602    -2.5254 F       
  35 H35           -0.8665     2.0432    -0.0166 H       
  36 H36           -0.8815    -0.4405    -0.0299 H       
  37 H37            1.2448    -1.6635    -0.0433 H       
  38 H38            1.2355     3.2499    -0.0075 H       
  39 H39            5.7834    -0.4089    -0.0428 H       
  40 H40            6.8935     4.0949    -0.0118 H       
  41 H41            4.5122    -2.4359     0.5335 H       
  42 H42            2.7387    -2.4407     0.3820 H       
  43 H43            4.9880    -4.2176    -0.9925 H       
  44 H44            3.2337    -4.5169    -0.9421 H       
  45 H45            4.2833    -5.5397    -2.9568 H       
  46 H46            3.1085    -4.2767    -3.3976 H       
  47 H47            5.6794    -1.7759    -4.1402 H       
  48 H48            3.9251    -2.0752    -4.0898 H       
  49 H49            4.6297    -0.7531    -2.1255 H       
  50 H50            5.8045    -2.0161    -1.6847 H       
  51 H51            6.1226    -6.9525    -6.7254 H       
  52 H52            4.7824    -3.1573    -8.1463 H       
  53 H53            4.5766    -2.3542    -5.8288 H       
  54 H54            5.6456    -8.1564    -5.0791 H       
  55 H55            7.3294    -7.5816    -5.1342 H       
@<TRIPOS>BOND
   1    1    2 1
   2    1    6 2
   3    1   35 1
   4    2    3 2
   5    2   36 1
   6    3    4 1
   7    3   37 1
   8    4    5 1
   9    4    7 2
  10    5    6 1
  11    5   10 am
  12    6   38 1
  13    7    8 1
  14    7   15 1
  15    8    9 2
  16    8   39 1
  17    9   10 1
  18    9   12 1
  19   10   11 2
  20   12   13 1
  21   12   14 2
  22   13   40 1
  23   15   16 1
  24   15   41 1
  25   15   42 1
  26   16   17 1
  27   16   21 1
  28   17   18 1
  29   17   43 1
  30   17   44 1
  31   18   19 1
  32   18   45 1
  33   18   46 1
  34   19   20 1
  35   19   22 1
  36   20   21 1
  37   20   47 1
  38   20   48 1
  39   21   49 1
  40   21   50 1
  41   22   23 ar
  42   22   27 ar
  43   23   24 ar
  44   23   28 1
  45   24   25 ar
  46   24   51 1
  47   25   26 ar
  48   25   29 1
  49   26   27 ar
  50   26   52 1
  51   27   53 1
  52   28   30 1
  53   30   31 1
  54   30   54 1
  55   30   55 1
  56   31   32 1
  57   31   33 1
  58   31   34 1

#	End of record

