#	Name: ASD01884711
#	Creating user name:	WinNT
#	Creation time:	15. 06. 2019 19:48

#	Modifying user name:	WinNT
#	Modification time:	15. 06. 2019 19:48

#	Program:	/corina/corina34_cracker 3.40 0067  02.08.2006

@<TRIPOS>MOLECULE
ASD01884711
  39   41    0    0    0
SMALL
NO_CHARGES


@<TRIPOS>ATOM
   1 C1            -0.0170     1.4031     0.0098 C.2     
   2 C2             0.0021    -0.0041     0.0020 C.2     
   3 C3             1.1604     2.0882     0.0022 C.2     
   4 C4             2.3750     1.3686    -0.0133 C.2     
   5 C5             2.3529     0.0043    -0.0204 C.2     
   6 N6             1.1737    -0.6666    -0.0123 N.am    
   7 C7             3.6702     2.0929    -0.0222 C.ar    
   8 H8             1.1646     3.1682     0.0076 H       
   9 Cl9           -1.5277     2.2582     0.0216 Cl      
  10 O10           -1.0480    -0.6262     0.0087 O.2     
  11 C11            1.1756    -2.1316    -0.0192 C.3     
  12 C12            1.1898    -2.6406     1.3992 C.ar    
  13 C13           -0.0009    -2.8755     2.0608 C.ar    
  14 C14            0.0106    -3.3421     3.3623 C.ar    
  15 C15            1.2127    -3.5741     4.0031 C.ar    
  16 C16            2.4061    -3.3395     3.3410 C.ar    
  17 C17            2.3934    -2.8777     2.0360 C.ar    
  18 F18            3.5820    -3.5659     3.9666 F       
  19 C19            4.0202     2.8841    -1.1148 C.ar    
  20 C20            5.2247     3.5560    -1.1203 C.ar    
  21 C21            6.0882     3.4445    -0.0392 C.ar    
  22 C22            5.7424     2.6572     1.0505 C.ar    
  23 C23            4.5365     1.9878     1.0644 C.ar    
  24 O24            7.2748     4.1071    -0.0478 O.3     
  25 C25            8.1150     3.9479     1.0970 C.3     
  26 H26            3.2820    -0.5462    -0.0322 H       
  27 H27            0.2812    -2.4936    -0.5262 H       
  28 H28            2.0611    -2.4913    -0.5432 H       
  29 H29           -0.9409    -2.6941     1.5609 H       
  30 H30           -0.9203    -3.5250     3.8784 H       
  31 H31            1.2214    -3.9379     5.0199 H       
  32 H32            3.3235    -2.6944     1.5187 H       
  33 H33            3.3491     2.9707    -1.9566 H       
  34 H34            5.4965     4.1693    -1.9668 H       
  35 H35            6.4164     2.5721     1.8900 H       
  36 H36            4.2679     1.3754     1.9125 H       
  37 H37            9.0278     4.5280     0.9613 H       
  38 H38            7.5897     4.2995     1.9850 H       
  39 H39            8.3685     2.8947     1.2180 H       
@<TRIPOS>BOND
   1    1    2 1
   2    1    3 2
   3    1    9 1
   4    2   10 2
   5    2    6 am
   6    3    4 1
   7    3    8 1
   8    4    5 2
   9    4    7 1
  10    5    6 1
  11    5   26 1
  12    6   11 1
  13    7   19 ar
  14    7   23 ar
  15   11   12 1
  16   11   27 1
  17   11   28 1
  18   12   13 ar
  19   12   17 ar
  20   13   14 ar
  21   13   29 1
  22   14   15 ar
  23   14   30 1
  24   15   16 ar
  25   15   31 1
  26   16   17 ar
  27   16   18 1
  28   17   32 1
  29   19   20 ar
  30   19   33 1
  31   20   21 ar
  32   20   34 1
  33   21   22 ar
  34   21   24 1
  35   22   23 ar
  36   22   35 1
  37   23   36 1
  38   24   25 1
  39   25   37 1
  40   25   38 1
  41   25   39 1

#	End of record

