#	Name: ASD07300590
#	Creating user name:	WinNT
#	Creation time:	15. 06. 2019 21:10

#	Modifying user name:	WinNT
#	Modification time:	15. 06. 2019 21:10

#	Program:	/corina/corina34_cracker 3.40 0067  02.08.2006

@<TRIPOS>MOLECULE
ASD07300590
  50   53    0    0    0
SMALL
NO_CHARGES


@<TRIPOS>ATOM
   1 C1            -0.0364     1.3499    -0.0327 C.ar    
   2 C2            -0.0127    -0.0421    -0.0573 C.ar    
   3 C3             1.2030    -0.6958    -0.0683 C.ar    
   4 C4             2.3740     0.0747    -0.0542 C.ar    
   5 C5             2.2692     1.4646    -0.0298 C.ar    
   6 N6             1.0880     2.0493    -0.0199 N.ar    
   7 N7            -1.2575     2.0148    -0.0274 N.pl3   
   8 C8             5.7939    -1.0952    -0.5236 C.2     
   9 C9             7.0371    -0.9498    -1.1886 C.2     
  10 N10            4.7767    -0.2278    -0.8339 N.pl3   
  11 N11            7.1887     0.0064    -2.0829 N.2     
  12 C12            6.1910     0.8462    -2.3777 C.2     
  13 C13            4.9909     0.7482    -1.7719 C.2     
  14 N14            5.3597    -1.9363     0.4008 N.2     
  15 C15            4.0952    -1.6537     0.7004 C.2     
  16 C16            3.7006    -0.5771    -0.0647 C.2     
  17 N17            8.0869    -1.8075    -0.9001 N.pl3   
  18 C18            9.3404    -1.7561    -1.6691 C.3     
  19 C19           10.5103    -1.6746    -0.6818 C.3     
  20 O20           10.3944    -2.7319     0.2735 O.3     
  21 C21            9.2170    -2.6641     1.0816 C.3     
  22 C22            7.9831    -2.7924     0.1883 C.3     
  23 C23            3.2420    -2.3821     1.7066 C.3     
  24 C24           -2.5075     1.2510    -0.0475 C.3     
  25 C25           -3.6277     2.0897     0.5712 C.3     
  26 C26           -2.8695     0.9033    -1.4928 C.3     
  27 H27           -0.9350    -0.6039    -0.0672 H       
  28 H28            1.2508    -1.7746    -0.0869 H       
  29 H29            3.1647     2.0683    -0.0188 H       
  30 H30           -1.2818     2.9843    -0.0103 H       
  31 H31            6.3499     1.6187    -3.1155 H       
  32 H32            4.1991     1.4373    -2.0258 H       
  33 H33            9.4352    -2.6556    -2.2772 H       
  34 H34            9.3408    -0.8759    -2.3121 H       
  35 H35           11.4511    -1.7745    -1.2230 H       
  36 H36           10.4858    -0.7143    -0.1667 H       
  37 H37            9.2275    -3.4759     1.8090 H       
  38 H38            9.1879    -1.7074     1.6031 H       
  39 H39            7.0850    -2.5983     0.7747 H       
  40 H40            7.9389    -3.7981    -0.2297 H       
  41 H41            3.3539    -1.9139     2.6846 H       
  42 H42            2.1974    -2.3354     1.3989 H       
  43 H43            3.5575    -3.4238     1.7643 H       
  44 H44           -2.3817     0.3329     0.5264 H       
  45 H45           -3.7535     3.0078    -0.0028 H       
  46 H46           -4.5577     1.5215     0.5562 H       
  47 H47           -3.3698     2.3374     1.6009 H       
  48 H48           -2.0715     0.3058    -1.9336 H       
  49 H49           -3.7996     0.3351    -1.5078 H       
  50 H50           -2.9954     1.8214    -2.0668 H       
@<TRIPOS>BOND
   1    1    2 ar
   2    1    6 ar
   3    1    7 1
   4    2    3 ar
   5    2   27 1
   6    3    4 ar
   7    3   28 1
   8    4    5 ar
   9    4   16 1
  10    5    6 ar
  11    5   29 1
  12    7   24 1
  13    7   30 1
  14    8    9 1
  15    8   10 1
  16    8   14 2
  17    9   11 2
  18    9   17 1
  19   10   13 1
  20   10   16 1
  21   11   12 1
  22   12   13 2
  23   12   31 1
  24   13   32 1
  25   14   15 1
  26   15   16 2
  27   15   23 1
  28   17   18 1
  29   17   22 1
  30   18   19 1
  31   18   33 1
  32   18   34 1
  33   19   20 1
  34   19   35 1
  35   19   36 1
  36   20   21 1
  37   21   22 1
  38   21   37 1
  39   21   38 1
  40   22   39 1
  41   22   40 1
  42   23   41 1
  43   23   42 1
  44   23   43 1
  45   24   25 1
  46   24   26 1
  47   24   44 1
  48   25   45 1
  49   25   46 1
  50   25   47 1
  51   26   48 1
  52   26   49 1
  53   26   50 1

#	End of record

