#	Name: ASD00170383
#	Creating user name:	WinNT
#	Creation time:	15. 06. 2019 18:32

#	Modifying user name:	WinNT
#	Modification time:	15. 06. 2019 18:32

#	Program:	/corina/corina34_cracker 3.40 0067  02.08.2006

@<TRIPOS>MOLECULE
ASD00170383
  32   33    0    0    0
SMALL
NO_CHARGES


@<TRIPOS>ATOM
   1 C1            -0.0160     1.3266     0.0093 C.2     
   2 C2             0.0021    -0.0041     0.0020 C.2     
   3 S3            -1.6678    -0.5749     0.0238 S.3     
   4 C4            -2.2314     1.0383     0.0351 C.2     
   5 N5            -1.2295     1.8593     0.0295 N.2     
   6 N6            -3.5657     1.4130     0.0547 N.pl3   
   7 C7             1.2197     2.1859     0.0022 C.3     
   8 C8             2.0038     1.9840    -1.2938 C.3     
   9 C9             3.4946     2.2026    -1.0234 C.3     
  10 C10            4.1856     0.8565    -0.8032 C.3     
  11 C11            4.1798     0.5090     0.6864 C.3     
  12 C12            3.5353    -0.8613     0.8961 C.3     
  13 C13            2.0536    -0.6936     1.2388 C.3     
  14 C14            1.2180    -0.8934    -0.0254 C.3     
  15 H15           -4.2597     0.7353     0.0631 H       
  16 H16           -3.8055     2.3528     0.0600 H       
  17 H17            0.9237     3.2362     0.0802 H       
  18 H18            1.8490     1.9374     0.8561 H       
  19 H19            1.8412     0.9802    -1.6792 H       
  20 H20            1.6650     2.7109    -2.0372 H       
  21 H21            3.9467     2.7071    -1.8782 H       
  22 H22            3.6138     2.8239    -0.1362 H       
  23 H23            3.6653     0.0812    -1.3640 H       
  24 H24            5.2180     0.9207    -1.1534 H       
  25 H25            5.2085     0.4836     1.0520 H       
  26 H26            3.6243     1.2649     1.2381 H       
  27 H27            3.6312    -1.4523    -0.0163 H       
  28 H28            4.0406    -1.3791     1.7130 H       
  29 H29            1.7717    -1.4453     1.9800 H       
  30 H30            1.8789     0.2959     1.6520 H       
  31 H31            0.8944    -1.9373    -0.0776 H       
  32 H32            1.8207    -0.6704    -0.9041 H       
@<TRIPOS>BOND
   1    1    2 2
   2    1    7 1
   3    1    5 1
   4    2    3 1
   5    2   14 1
   6    3    4 1
   7    4    5 2
   8    4    6 1
   9    6   15 1
  10    6   16 1
  11    7    8 1
  12    7   17 1
  13    7   18 1
  14    8    9 1
  15    8   19 1
  16    8   20 1
  17    9   10 1
  18    9   21 1
  19    9   22 1
  20   10   11 1
  21   10   23 1
  22   10   24 1
  23   11   12 1
  24   11   25 1
  25   11   26 1
  26   12   13 1
  27   12   27 1
  28   12   28 1
  29   13   14 1
  30   13   29 1
  31   13   30 1
  32   14   31 1
  33   14   32 1

#	End of record

