#	Name: ASD01914664
#	Creating user name:	WinNT
#	Creation time:	15. 06. 2019 20:04

#	Modifying user name:	WinNT
#	Modification time:	15. 06. 2019 20:04

#	Program:	/corina/corina34_cracker 3.40 0067  02.08.2006

@<TRIPOS>MOLECULE
ASD01914664
  56   61    0    0    0
SMALL
NO_CHARGES


@<TRIPOS>ATOM
   1 C1            -0.0170     1.4023     0.0098 C.2     
   2 C2             0.0021    -0.0041     0.0020 C.2     
   3 C3             1.2208    -0.6606    -0.0131 C.2     
   4 C4             2.4174     0.0998    -0.0205 C.2     
   5 C5             2.3637     1.4442    -0.0128 C.2     
   6 N6             1.1642     2.1000     0.0022 N.pl3   
   7 N7            -1.0124     2.2789     0.0293 N.2     
   8 C8            -0.5083     3.5116     0.0283 C.2     
   9 C9             0.8434     3.4261     0.0124 C.2     
  10 C10            1.2739    -2.1361    -0.0211 C.2     
  11 O11            0.2435    -2.7815    -0.0143 O.2     
  12 N12            2.4645    -2.7675    -0.0359 N.am    
  13 C13            2.5172    -4.2315    -0.0437 C.3     
  14 C14            3.9770    -4.6893    -0.0602 C.3     
  15 C15            4.0321    -6.2182    -0.0685 C.3     
  16 C16            3.3175    -6.7476    -1.3135 C.3     
  17 C17            1.8577    -6.2899    -1.2970 C.3     
  18 C18            1.1674    -6.8318    -0.0437 C.3     
  19 C19            1.8820    -6.3025     1.2013 C.3     
  20 C20            1.8270    -4.7735     1.2096 C.3     
  21 C21            3.3418    -6.7602     1.1848 C.3     
  22 C22            1.8026    -4.7609    -1.2888 C.3     
  23 N23            5.4299    -6.6565    -0.0843 N.am    
  24 C24            5.7236    -7.9718    -0.0938 C.2     
  25 O25            4.8291    -8.7942    -0.0892 O.2     
  26 C26            7.1374    -8.4151    -0.1097 C.ar    
  27 C27            7.4344    -9.7761    -0.1195 C.ar    
  28 C28            8.7615   -10.1754    -0.1349 C.ar    
  29 C29            9.7457    -9.1991    -0.1400 C.ar    
  30 C30            9.3774    -7.8634    -0.1296 C.ar    
  31 N31            8.1100    -7.5122    -0.1202 N.ar    
  32 H32           -0.9214    -0.5641     0.0082 H       
  33 H33            3.3741    -0.4011    -0.0320 H       
  34 H34            3.2815     2.0134    -0.0185 H       
  35 H35           -1.0816     4.4268     0.0414 H       
  36 H36            1.5378     4.2533     0.0106 H       
  37 H37            3.2865    -2.2526    -0.0413 H       
  38 H38            4.4688    -4.3032    -0.9531 H       
  39 H39            4.4861    -4.3121     0.8267 H       
  40 H40            3.8093    -6.3615    -2.2064 H       
  41 H41            3.3567    -7.8369    -1.3194 H       
  42 H42            1.3486    -6.6670    -2.1840 H       
  43 H43            0.1274    -6.5057    -0.0319 H       
  44 H44            1.2066    -7.9211    -0.0496 H       
  45 H45            1.3902    -6.6885     2.0942 H       
  46 H46            2.3360    -4.3963     2.0965 H       
  47 H47            0.7869    -4.4474     1.2213 H       
  48 H48            3.3810    -7.8495     1.1790 H       
  49 H49            3.8509    -6.3831     2.0718 H       
  50 H50            0.7626    -4.4348    -1.2770 H       
  51 H51            2.2944    -4.3748    -2.1816 H       
  52 H52            6.1440    -6.0001    -0.0879 H       
  53 H53            6.6418   -10.5097    -0.1148 H       
  54 H54            9.0229   -11.2232    -0.1424 H       
  55 H55           10.7893    -9.4770    -0.1516 H       
  56 H56           10.1416    -7.1002    -0.1336 H       
@<TRIPOS>BOND
   1    1    2 1
   2    1    6 1
   3    1    7 2
   4    2    3 2
   5    2   32 1
   6    3    4 1
   7    3   10 1
   8    4    5 2
   9    4   33 1
  10    5    6 1
  11    5   34 1
  12    6    9 1
  13    7    8 1
  14    8    9 2
  15    8   35 1
  16    9   36 1
  17   10   11 2
  18   10   12 am
  19   12   13 1
  20   12   37 1
  21   13   14 1
  22   13   20 1
  23   13   22 1
  24   14   15 1
  25   14   38 1
  26   14   39 1
  27   15   16 1
  28   15   21 1
  29   15   23 1
  30   16   17 1
  31   16   40 1
  32   16   41 1
  33   17   18 1
  34   17   22 1
  35   17   42 1
  36   18   19 1
  37   18   43 1
  38   18   44 1
  39   19   20 1
  40   19   21 1
  41   19   45 1
  42   20   46 1
  43   20   47 1
  44   21   48 1
  45   21   49 1
  46   22   50 1
  47   22   51 1
  48   23   24 am
  49   23   52 1
  50   24   25 2
  51   24   26 1
  52   26   27 ar
  53   26   31 ar
  54   27   28 ar
  55   27   53 1
  56   28   29 ar
  57   28   54 1
  58   29   30 ar
  59   29   55 1
  60   30   31 ar
  61   30   56 1

#	End of record

