#	Name: ASD03240694
#	Creating user name:	WinNT
#	Creation time:	15. 06. 2019 20:35

#	Modifying user name:	WinNT
#	Modification time:	15. 06. 2019 20:35

#	Program:	/corina/corina34_cracker 3.40 0067  02.08.2006

@<TRIPOS>MOLECULE
ASD03240694
  67   72    0    0    0
SMALL
NO_CHARGES


@<TRIPOS>ATOM
   1 C1            -0.0188     1.5336     0.0105 C.3     
   2 C2             0.0021    -0.0041     0.0020 C.3     
   3 C3             1.3815     0.0967    -0.6702 C.3     
   4 C4             1.5179     1.4762    -0.0045 C.3     
   5 O5            -0.5818     2.1049    -1.1721 O.3     
   6 C6            -0.5973     2.1316     1.2944 C.3     
   7 C7             2.3746    -0.9181    -0.1653 C.ar    
   8 C8             3.3681    -1.3872    -1.0061 C.ar    
   9 C9             4.2807    -2.3160    -0.5495 C.ar    
  10 C10            4.2000    -2.7820     0.7628 C.ar    
  11 C11            3.1960    -2.3051     1.6056 C.ar    
  12 C12            2.2926    -1.3725     1.1389 C.ar    
  13 C13            7.8743    -7.5224     0.4039 C.2     
  14 N14            8.3308    -7.5321     1.6689 N.2     
  15 C15            7.9394    -6.6526     2.5545 C.2     
  16 C16            6.9770    -5.6264     2.1589 C.ar    
  17 C17            6.5015    -5.6219     0.8301 C.ar    
  18 N18            6.9720    -6.5914    -0.0345 N.pl3   
  19 C19            6.5212    -4.6590     3.0602 C.ar    
  20 C20            5.6042    -3.7197     2.5992 C.ar    
  21 C21            5.1759    -3.7791     1.2589 C.ar    
  22 N22            5.6305    -4.7106     0.4338 N.ar    
  23 N23            6.7045    -6.8552    -1.3833 N.2     
  24 C24            7.4072    -7.8972    -1.7577 C.2     
  25 C25            8.1493    -8.3518    -0.6749 C.2     
  26 C26            5.0840    -2.6698     3.5075 C.ar    
  27 C27            4.5769    -3.0158     4.7591 C.ar    
  28 C28            4.0946    -2.0341     5.6006 C.ar    
  29 C29            4.1132    -0.7090     5.2041 C.ar    
  30 C30            4.6148    -0.3597     3.9631 C.ar    
  31 C31            5.1055    -1.3322     3.1157 C.ar    
  32 C32            7.4056    -8.5057    -3.1364 C.3     
  33 C33            6.6032    -9.8083    -3.1180 C.3     
  34 C34            6.7676    -7.5276    -4.1249 C.3     
  35 C35            8.8445    -8.7991    -3.5660 C.3     
  36 N36            1.3186     0.1546    -2.1367 N.3     
  37 H37            0.0329    -0.4458     0.9980 H       
  38 H38           -0.7629    -0.4476    -0.6353 H       
  39 H39            1.9766     2.2276    -0.6471 H       
  40 H40            1.9632     1.4391     0.9897 H       
  41 H41           -0.5977     3.0718    -1.1727 H       
  42 H42            0.0010     1.8098     2.1469 H       
  43 H43           -0.5800     3.2195     1.2285 H       
  44 H44           -1.6249     1.7917     1.4227 H       
  45 H45            3.4293    -1.0259    -2.0220 H       
  46 H46            5.0555    -2.6817    -1.2070 H       
  47 H47            3.1282    -2.6625     2.6226 H       
  48 H48            1.5173    -0.9995     1.7917 H       
  49 H49            8.3223    -6.6842     3.5639 H       
  50 H50            6.8696    -4.6419     4.0823 H       
  51 H51            8.8211    -9.1975    -0.6732 H       
  52 H52            4.5613    -4.0501     5.0694 H       
  53 H53            3.7015    -2.3010     6.5704 H       
  54 H54            3.7343     0.0559     5.8658 H       
  55 H55            4.6265     0.6764     3.6586 H       
  56 H56            5.5011    -1.0579     2.1489 H       
  57 H57            5.5782    -9.5993    -2.8119 H       
  58 H58            6.6021   -10.2485    -4.1152 H       
  59 H59            7.0578   -10.5051    -2.4138 H       
  60 H60            7.3392    -6.5996    -4.1380 H       
  61 H61            6.7664    -7.9678    -5.1220 H       
  62 H62            5.7425    -7.3186    -3.8188 H       
  63 H63            9.2990    -9.4959    -2.8618 H       
  64 H64            8.8433    -9.2392    -4.5632 H       
  65 H65            9.4161    -7.8711    -3.5791 H       
  66 H66            2.2430     0.2199    -2.5360 H       
  67 H67            0.8193    -0.6393    -2.5089 H       
@<TRIPOS>BOND
   1    1    2 1
   2    1    4 1
   3    1    5 1
   4    1    6 1
   5    2    3 1
   6    2   37 1
   7    2   38 1
   8    3    4 1
   9    3    7 1
  10    3   36 1
  11    4   39 1
  12    4   40 1
  13    5   41 1
  14    6   42 1
  15    6   43 1
  16    6   44 1
  17    7    8 ar
  18    7   12 ar
  19    8    9 ar
  20    8   45 1
  21    9   10 ar
  22    9   46 1
  23   10   11 ar
  24   10   21 1
  25   11   12 ar
  26   11   47 1
  27   12   48 1
  28   13   14 1
  29   13   18 1
  30   13   25 2
  31   14   15 2
  32   15   16 1
  33   15   49 1
  34   16   17 ar
  35   16   19 ar
  36   17   18 1
  37   17   22 ar
  38   18   23 1
  39   19   20 ar
  40   19   50 1
  41   20   21 ar
  42   20   26 1
  43   21   22 ar
  44   23   24 2
  45   24   25 1
  46   24   32 1
  47   25   51 1
  48   26   27 ar
  49   26   31 ar
  50   27   28 ar
  51   27   52 1
  52   28   29 ar
  53   28   53 1
  54   29   30 ar
  55   29   54 1
  56   30   31 ar
  57   30   55 1
  58   31   56 1
  59   32   33 1
  60   32   34 1
  61   32   35 1
  62   33   57 1
  63   33   58 1
  64   33   59 1
  65   34   60 1
  66   34   61 1
  67   34   62 1
  68   35   63 1
  69   35   64 1
  70   35   65 1
  71   36   66 1
  72   36   67 1

#	End of record

