#	Name: ASD01880762
#	Creating user name:	WinNT
#	Creation time:	15. 06. 2019 19:41

#	Modifying user name:	WinNT
#	Modification time:	15. 06. 2019 19:41

#	Program:	/corina/corina34_cracker 3.40 0067  02.08.2006

@<TRIPOS>MOLECULE
ASD01880762
  54   57    0    0    0
SMALL
NO_CHARGES


@<TRIPOS>ATOM
   1 N1             0.0007     1.3130    -0.2012 N.ar    
   2 C2             0.0232    -0.0041    -0.2230 C.ar    
   3 N3             1.1362    -0.6836    -0.0324 N.ar    
   4 C4             2.2857    -0.0626     0.1906 C.ar    
   5 C5             2.3106     1.3180     0.2224 C.ar    
   6 C6             1.1139     2.0072     0.0166 C.ar    
   7 C7             3.5971     2.0618     0.4730 C.3     
   8 O8             4.6355     1.1283     0.7771 O.3     
   9 C9             5.8674     1.6381     1.0305 C.ar    
  10 C10            6.9240     0.7848     1.3335 C.ar    
  11 C11            8.1697     1.3017     1.5892 C.ar    
  12 C12            8.3850     2.6832     1.5471 C.ar    
  13 C13            7.3205     3.5358     1.2418 C.ar    
  14 C14            6.0740     3.0116     0.9814 C.ar    
  15 C15            9.4960     0.6746     1.9399 C.3     
  16 N16           10.4468     1.7825     2.0874 N.am    
  17 C17            9.8016     2.9395     1.8599 C.2     
  18 O18           10.3144     4.0409     1.9054 O.2     
  19 C19           -1.2596    -0.7546    -0.4725 C.3     
  20 C20            7.5375     5.0264     1.1934 C.3     
  21 N21            1.0867     3.3922     0.0385 N.3     
  22 C22           -0.1588     3.8852     0.6443 C.3     
  23 C23           -0.1211     5.4146     0.7027 C.3     
  24 O24            0.0819     5.9321    -0.6150 O.3     
  25 C25            1.2862     5.4728    -1.2347 C.3     
  26 C26            1.2627     3.9440    -1.3127 C.3     
  27 C27           12.6864     1.5092     1.1437 C.3     
  28 C28           11.8656     1.6495     2.4272 C.3     
  29 H29            3.1919    -0.6293     0.3459 H       
  30 H30            3.8680     2.6293    -0.4174 H       
  31 H31            3.4647     2.7442     1.3125 H       
  32 H32            6.7640    -0.2828     1.3679 H       
  33 H33            5.2519     3.6710     0.7452 H       
  34 H34            9.4140     0.1240     2.8771 H       
  35 H35            9.8185     0.0081     1.1401 H       
  36 H36           -1.3840    -0.9156    -1.5434 H       
  37 H37           -1.2226    -1.7171     0.0377 H       
  38 H38           -2.1001    -0.1739    -0.0924 H       
  39 H39            7.8230     5.3193     0.1831 H       
  40 H40            6.6159     5.5369     1.4730 H       
  41 H41            8.3304     5.3009     1.8891 H       
  42 H42           -1.0085     3.5648     0.0414 H       
  43 H43           -0.2561     3.4847     1.6534 H       
  44 H44           -1.0659     5.7871     1.0985 H       
  45 H45            0.6964     5.7341     1.3491 H       
  46 H46            1.3592     5.8875    -2.2401 H       
  47 H47            2.1445     5.7940    -0.6447 H       
  48 H48            2.2031     3.5865    -1.7322 H       
  49 H49            0.4358     3.6246    -1.9469 H       
  50 H50           13.7421     1.4103     1.3965 H       
  51 H51           12.3590     0.6244     0.5979 H       
  52 H52           12.5430     2.3932     0.5222 H       
  53 H53           12.1930     2.5344     2.9730 H       
  54 H54           12.0091     0.7656     3.0486 H       
@<TRIPOS>BOND
   1    1    2 ar
   2    1    6 ar
   3    2    3 ar
   4    2   19 1
   5    3    4 ar
   6    4    5 ar
   7    4   29 1
   8    5    6 ar
   9    5    7 1
  10    6   21 1
  11    7    8 1
  12    7   30 1
  13    7   31 1
  14    8    9 1
  15    9   10 ar
  16    9   14 ar
  17   10   11 ar
  18   10   32 1
  19   11   12 ar
  20   11   15 1
  21   12   13 ar
  22   12   17 1
  23   13   14 ar
  24   13   20 1
  25   14   33 1
  26   15   16 1
  27   15   34 1
  28   15   35 1
  29   16   17 am
  30   16   28 1
  31   17   18 2
  32   19   36 1
  33   19   37 1
  34   19   38 1
  35   20   39 1
  36   20   40 1
  37   20   41 1
  38   21   22 1
  39   21   26 1
  40   22   23 1
  41   22   42 1
  42   22   43 1
  43   23   24 1
  44   23   44 1
  45   23   45 1
  46   24   25 1
  47   25   26 1
  48   25   46 1
  49   25   47 1
  50   26   48 1
  51   26   49 1
  52   27   28 1
  53   27   50 1
  54   27   51 1
  55   27   52 1
  56   28   53 1
  57   28   54 1

#	End of record

