#	Name: ASD01200291
#	Creating user name:	WinNT
#	Creation time:	15. 06. 2019 19:08

#	Modifying user name:	WinNT
#	Modification time:	15. 06. 2019 19:08

#	Program:	/corina/corina34_cracker 3.40 0067  02.08.2006

@<TRIPOS>MOLECULE
ASD01200291
  60   64    0    0    0
SMALL
NO_CHARGES


@<TRIPOS>ATOM
   1 C1             1.6558     1.8406    -0.6935 C.ar    
   2 C2             1.3289     0.5361    -0.3886 C.ar    
   3 C3             2.3264    -0.4272    -0.3316 C.ar    
   4 C4             3.6612    -0.0674    -0.5846 C.ar    
   5 C5             3.9688     1.2603    -0.8915 C.ar    
   6 C6             2.9736     2.1952    -0.9432 C.ar    
   7 N7             2.3412    -1.7813    -0.0631 N.pl3   
   8 C8             3.6329    -2.1980    -0.1552 C.2     
   9 N9             4.4054    -1.1964    -0.4601 N.2     
  10 C10            1.1810    -2.6149     0.2613 C.3     
  11 C11            1.1821    -2.9254     1.7359 C.ar    
  12 C12            0.6428    -2.0220     2.6330 C.ar    
  13 C13            0.6439    -2.3067     3.9854 C.ar    
  14 C14            1.1837    -3.4951     4.4413 C.ar    
  15 C15            1.7219    -4.3986     3.5445 C.ar    
  16 C16            1.7170    -4.1157     2.1912 C.ar    
  17 C17            0.0544    -0.7267     2.1361 C.3     
  18 C18            4.1010    -3.6136     0.0640 C.3     
  19 N19            4.2688    -4.2785    -1.2306 N.am    
  20 C20            5.5045    -4.0816    -1.9854 C.3     
  21 C21            5.9654    -5.3874    -2.6281 C.3     
  22 C22            4.8279    -6.0217    -3.3848 C.ar    
  23 C23            3.5193    -5.8676    -2.9158 C.ar    
  24 C24            3.2842    -5.0658    -1.7037 C.2     
  25 O25            2.2076    -5.1073    -1.1394 O.2     
  26 C26            5.0659    -6.7479    -4.5275 C.ar    
  27 C27            4.0074    -7.3386    -5.2120 C.ar    
  28 C28            2.7075    -7.2024    -4.7469 C.ar    
  29 C29            2.4550    -6.4705    -3.5982 C.ar    
  30 O30            1.1860    -6.3390    -3.1372 O.3     
  31 C31            0.1420    -6.8837    -3.9468 C.3     
  32 O32            4.2484    -8.0516    -6.3413 O.3     
  33 C33            3.1184    -8.6319    -6.9958 C.3     
  34 H34            0.8801     2.5905    -0.7427 H       
  35 H35            0.3015     0.2654    -0.1948 H       
  36 H36            4.9914     1.5474    -1.0872 H       
  37 H37            3.2154     3.2206    -1.1808 H       
  38 H38            0.2664    -2.0811     0.0030 H       
  39 H39            1.2315    -3.5445    -0.3058 H       
  40 H40            0.2233    -1.6007     4.6862 H       
  41 H41            1.1852    -3.7173     5.4982 H       
  42 H42            2.1439    -5.3268     3.9006 H       
  43 H43            2.1376    -4.8217     1.4904 H       
  44 H44           -1.0184    -0.8485     1.9870 H       
  45 H45            0.2323     0.0586     2.8708 H       
  46 H46            0.5238    -0.4532     1.1911 H       
  47 H47            5.0538    -3.6033     0.5934 H       
  48 H48            3.3620    -4.1530     0.6565 H       
  49 H49            5.3334    -3.3395    -2.7652 H       
  50 H50            6.2816    -3.7199    -1.3122 H       
  51 H51            6.7865    -5.1820    -3.3149 H       
  52 H52            6.3087    -6.0710    -1.8515 H       
  53 H53            6.0753    -6.8601    -4.8948 H       
  54 H54            1.8918    -7.6670    -5.2809 H       
  55 H55            0.2048    -6.4647    -4.9511 H       
  56 H56            0.2494    -7.9672    -3.9977 H       
  57 H57           -0.8247    -6.6346    -3.5091 H       
  58 H58            2.6188    -9.3213    -6.3152 H       
  59 H59            2.4244    -7.8443    -7.2892 H       
  60 H60            3.4500    -9.1728    -7.8821 H       
@<TRIPOS>BOND
   1    1    2 ar
   2    1    6 ar
   3    1   34 1
   4    2    3 ar
   5    2   35 1
   6    3    4 ar
   7    3    7 1
   8    4    5 ar
   9    4    9 1
  10    5    6 ar
  11    5   36 1
  12    6   37 1
  13    7    8 1
  14    7   10 1
  15    8    9 2
  16    8   18 1
  17   10   11 1
  18   10   38 1
  19   10   39 1
  20   11   12 ar
  21   11   16 ar
  22   12   13 ar
  23   12   17 1
  24   13   14 ar
  25   13   40 1
  26   14   15 ar
  27   14   41 1
  28   15   16 ar
  29   15   42 1
  30   16   43 1
  31   17   44 1
  32   17   45 1
  33   17   46 1
  34   18   19 1
  35   18   47 1
  36   18   48 1
  37   19   20 1
  38   19   24 am
  39   20   21 1
  40   20   49 1
  41   20   50 1
  42   21   22 1
  43   21   51 1
  44   21   52 1
  45   22   23 ar
  46   22   26 ar
  47   23   24 1
  48   23   29 ar
  49   24   25 2
  50   26   27 ar
  51   26   53 1
  52   27   28 ar
  53   27   32 1
  54   28   29 ar
  55   28   54 1
  56   29   30 1
  57   30   31 1
  58   31   55 1
  59   31   56 1
  60   31   57 1
  61   32   33 1
  62   33   58 1
  63   33   59 1
  64   33   60 1

#	End of record

