#	Name: ASD01914311
#	Creating user name:	WinNT
#	Creation time:	15. 06. 2019 20:03

#	Modifying user name:	WinNT
#	Modification time:	15. 06. 2019 20:03

#	Program:	/corina/corina34_cracker 3.40 0067  02.08.2006

@<TRIPOS>MOLECULE
ASD01914311
  56   60    0    0    0
SMALL
NO_CHARGES


@<TRIPOS>ATOM
   1 C1            -0.0596     1.5368     0.2071 C.2     
   2 C2            -0.0158     0.0433     0.0111 C.3     
   3 N3             1.0859     2.2465     0.2366 N.am    
   4 C4             1.0657     3.7048     0.4268 C.3     
   5 C5             2.0297     4.0608     1.5635 C.3     
   6 N6             3.3525     3.4900     1.2763 N.3     
   7 C7             3.3010     2.0227     1.2297 C.3     
   8 C8             2.3895     1.5824     0.0854 C.3     
   9 C9             4.2905     3.9245     2.1966 C.ar    
  10 N10            5.5434     3.5069     2.0894 N.ar    
  11 C11            6.4643     3.9031     2.9522 C.ar    
  12 C12            6.1050     4.7647     3.9767 C.ar    
  13 C13            4.7858     5.1819     4.0595 C.ar    
  14 N14            3.9155     4.7523     3.1608 N.ar    
  15 C15           -2.2082    -0.6065    -1.0623 C.2     
  16 N16           -3.3455    -1.1276    -0.6634 N.2     
  17 C17           -3.2856    -1.3585     0.6606 C.2     
  18 C18           -2.0607    -0.9647     1.1023 C.2     
  19 N19           -1.3802    -0.4902     0.0164 N.pl3   
  20 C20           -4.3667    -1.9405     1.4936 C.ar    
  21 C21           -5.5799    -2.3029     0.9116 C.ar    
  22 C22           -6.5821    -2.8438     1.6912 C.ar    
  23 C23           -6.3840    -3.0264     3.0480 C.ar    
  24 C24           -5.1820    -2.6681     3.6311 C.ar    
  25 C25           -4.1706    -2.1321     2.8600 C.ar    
  26 C26           -1.8773    -0.2166    -2.4503 C.ar    
  27 C27           -0.8261     0.6669    -2.6981 C.ar    
  28 C28           -0.5225     1.0267    -3.9950 C.ar    
  29 C29           -1.2578     0.5135    -5.0485 C.ar    
  30 C30           -2.3013    -0.3630    -4.8095 C.ar    
  31 C31           -2.6113    -0.7352    -3.5176 C.ar    
  32 O32           -1.1258     2.1008     0.3334 O.2     
  33 H33            0.4595    -0.1842    -0.9431 H       
  34 H34            0.5558    -0.4127     0.8195 H       
  35 H35            1.3842     4.1982    -0.4915 H       
  36 H36            0.0574     4.0261     0.6876 H       
  37 H37            2.1112     5.1446     1.6453 H       
  38 H38            1.6530     3.6522     2.5012 H       
  39 H39            4.3045     1.6284     1.0694 H       
  40 H40            2.9066     1.6424     2.1721 H       
  41 H41            2.2559     0.5012     0.1207 H       
  42 H42            2.8377     1.8679    -0.8663 H       
  43 H43            7.4839     3.5590     2.8598 H       
  44 H44            6.8369     5.1034     4.6950 H       
  45 H45            4.4731     5.8529     4.8459 H       
  46 H46           -1.6959    -1.0165     2.1175 H       
  47 H47           -5.7358    -2.1604    -0.1476 H       
  48 H48           -7.5229    -3.1246     1.2412 H       
  49 H49           -7.1710    -3.4500     3.6543 H       
  50 H50           -5.0328    -2.8126     4.6910 H       
  51 H51           -3.2307    -1.8572     3.3154 H       
  52 H52           -0.2516     1.0685    -1.8765 H       
  53 H53            0.2906     1.7107    -4.1881 H       
  54 H54           -1.0164     0.7985    -6.0619 H       
  55 H55           -2.8717    -0.7599    -5.6362 H       
  56 H56           -3.4232    -1.4229    -3.3326 H       
@<TRIPOS>BOND
   1    1    2 1
   2    1    3 am
   3    1   32 2
   4    2   19 1
   5    2   33 1
   6    2   34 1
   7    3    4 1
   8    3    8 1
   9    4    5 1
  10    4   35 1
  11    4   36 1
  12    5    6 1
  13    5   37 1
  14    5   38 1
  15    6    7 1
  16    6    9 1
  17    7    8 1
  18    7   39 1
  19    7   40 1
  20    8   41 1
  21    8   42 1
  22    9   10 ar
  23    9   14 ar
  24   10   11 ar
  25   11   12 ar
  26   11   43 1
  27   12   13 ar
  28   12   44 1
  29   13   14 ar
  30   13   45 1
  31   15   16 2
  32   15   19 1
  33   15   26 1
  34   16   17 1
  35   17   18 2
  36   17   20 1
  37   18   19 1
  38   18   46 1
  39   20   21 ar
  40   20   25 ar
  41   21   22 ar
  42   21   47 1
  43   22   23 ar
  44   22   48 1
  45   23   24 ar
  46   23   49 1
  47   24   25 ar
  48   24   50 1
  49   25   51 1
  50   26   27 ar
  51   26   31 ar
  52   27   28 ar
  53   27   52 1
  54   28   29 ar
  55   28   53 1
  56   29   30 ar
  57   29   54 1
  58   30   31 ar
  59   30   55 1
  60   31   56 1

#	End of record

