#	Name: ASD01230620
#	Creating user name:	WinNT
#	Creation time:	15. 06. 2019 19:14

#	Modifying user name:	WinNT
#	Modification time:	15. 06. 2019 19:14

#	Program:	/corina/corina34_cracker 3.40 0067  02.08.2006

@<TRIPOS>MOLECULE
ASD01230620
  49   52    0    0    0
SMALL
NO_CHARGES


@<TRIPOS>ATOM
   1 C1            -0.0185     1.5105     0.0103 C.2     
   2 C2             0.0021    -0.0041     0.0020 C.3     
   3 C3             1.0978    -0.4527     0.9780 C.3     
   4 C4             2.4559     0.0193     0.4658 C.3     
   5 C5             2.4612     1.5036     0.2221 C.ar    
   6 C6             3.6673     2.1805     0.2155 C.ar    
   7 C7             3.7021     3.5442    -0.0090 C.ar    
   8 C8             2.5318     4.2496    -0.2303 C.ar    
   9 C9             1.3200     3.5916    -0.2264 C.ar    
  10 C10            1.2795     2.2130     0.0017 C.ar    
  11 O11           -1.0643     2.1241     0.0187 O.2     
  12 C12           -1.3544    -0.5452     0.4582 C.3     
  13 C13            0.3195    -0.5123    -1.4058 C.3     
  14 S14            3.7709     6.5746     3.2467 S.o2    
  15 N15            3.1632     5.8950     1.8745 N.am    
  16 C16            3.2037     6.4362     0.7226 C.2     
  17 N17            3.7954     7.6444     0.4549 N.pl3   
  18 C18            4.8340     8.1941     1.3189 C.3     
  19 C19            4.3282     8.2292     2.7625 C.3     
  20 C20            2.5820     5.7358    -0.4748 C.3     
  21 C21            3.4672     6.0345    -1.6874 C.3     
  22 C22            3.5089     7.5271    -1.9862 C.3     
  23 C23            3.3375     8.3750    -0.7316 C.3     
  24 O24            2.6499     6.6638     4.1153 O.2     
  25 O25            4.8831     5.7540     3.5767 O.2     
  26 H26            0.9092    -0.0198     1.9605 H       
  27 H27            1.0952    -1.5401     1.0529 H       
  28 H28            3.2201    -0.2240     1.2040 H       
  29 H29            2.6847    -0.4965    -0.4667 H       
  30 H30            4.5869     1.6408     0.3870 H       
  31 H31            4.6493     4.0630    -0.0113 H       
  32 H32            0.4053     4.1395    -0.3983 H       
  33 H33           -2.1326    -0.1924    -0.2185 H       
  34 H34           -1.3322    -1.6350     0.4498 H       
  35 H35           -1.5646    -0.1939     1.4684 H       
  36 H36            1.2950    -0.1376    -1.7159 H       
  37 H37            0.3326    -1.6022    -1.4042 H       
  38 H38           -0.4429    -0.1591    -2.1001 H       
  39 H39            5.7243     7.5680     1.2608 H       
  40 H40            5.0788     9.2056     0.9948 H       
  41 H41            3.4966     8.9297     2.8392 H       
  42 H42            5.1347     8.5487     3.4225 H       
  43 H43            1.5755     6.1174    -0.6461 H       
  44 H44            4.4790     5.6822    -1.4863 H       
  45 H45            3.0727     5.5073    -2.5560 H       
  46 H46            4.4666     7.7683    -2.4472 H       
  47 H47            2.7105     7.7691    -2.6877 H       
  48 H48            2.2846     8.6303    -0.6119 H       
  49 H49            3.9188     9.2912    -0.8355 H       
@<TRIPOS>BOND
   1    1    2 1
   2    1   10 1
   3    1   11 2
   4    2    3 1
   5    2   12 1
   6    2   13 1
   7    3    4 1
   8    3   26 1
   9    3   27 1
  10    4    5 1
  11    4   28 1
  12    4   29 1
  13    5    6 ar
  14    5   10 ar
  15    6    7 ar
  16    6   30 1
  17    7    8 ar
  18    7   31 1
  19    8    9 ar
  20    8   20 1
  21    9   10 ar
  22    9   32 1
  23   12   33 1
  24   12   34 1
  25   12   35 1
  26   13   36 1
  27   13   37 1
  28   13   38 1
  29   14   15 am
  30   14   19 1
  31   14   24 2
  32   14   25 2
  33   15   16 2
  34   16   17 1
  35   16   20 1
  36   17   18 1
  37   17   23 1
  38   18   19 1
  39   18   39 1
  40   18   40 1
  41   19   41 1
  42   19   42 1
  43   20   21 1
  44   20   43 1
  45   21   22 1
  46   21   44 1
  47   21   45 1
  48   22   23 1
  49   22   46 1
  50   22   47 1
  51   23   48 1
  52   23   49 1

#	End of record

