#	Name: ASD01880632
#	Creating user name:	WinNT
#	Creation time:	15. 06. 2019 19:41

#	Modifying user name:	WinNT
#	Modification time:	15. 06. 2019 19:41

#	Program:	/corina/corina34_cracker 3.40 0067  02.08.2006

@<TRIPOS>MOLECULE
ASD01880632
  45   49    0    0    0
SMALL
NO_CHARGES


@<TRIPOS>ATOM
   1 C1             0.0023     1.4022     0.4537 C.ar    
   2 C2             0.0094     0.0098     0.3424 C.ar    
   3 C3             1.2101    -0.6764     0.1767 C.ar    
   4 C4             2.3997     0.0296     0.1226 C.ar    
   5 C5             2.3824     1.4308     0.2354 C.ar    
   6 C6             1.1724     2.1057     0.4011 C.ar    
   7 N7             3.6154    -0.6281    -0.0417 N.pl3   
   8 C8             4.7810     0.0738    -0.0936 C.2     
   9 N9             4.8009     1.4611     0.0145 N.am    
  10 C10            3.6595     2.1613     0.1754 C.2     
  11 N11            3.9226    -1.9895    -0.1775 N.2     
  12 C12            5.2272    -2.1086    -0.3071 C.2     
  13 C13            5.7933    -0.8229    -0.2577 C.2     
  14 O14            3.6846     3.3735     0.2696 O.2     
  15 C15           -1.2678    -0.7416     0.4015 C.ar    
  16 C16            5.9719    -3.3810    -0.4761 C.ar    
  17 C17           -2.4812    -0.0679     0.5679 C.ar    
  18 C18           -3.6456    -0.8152     0.6164 C.ar    
  19 C19           -3.5718    -2.1911     0.4997 C.ar    
  20 N20           -2.4116    -2.7993     0.3435 N.ar    
  21 C21           -1.2783    -2.1307     0.2863 C.ar    
  22 C22            5.2862    -4.5935    -0.5092 C.ar    
  23 C23            7.3590    -3.3671    -0.6080 C.ar    
  24 C24            8.0466    -4.5535    -0.7650 C.ar    
  25 C25            7.3613    -5.7547    -0.7918 C.ar    
  26 C26            5.9839    -5.7739    -0.6666 C.ar    
  27 C27            5.9783     2.1146    -0.0421 C.2     
  28 C28            6.0016     3.6176    -0.1482 C.3     
  29 O29            7.0187     1.4932    -0.0075 O.2     
  30 H30           -0.9340     1.9261     0.5775 H       
  31 H31            1.2131    -1.7530     0.0913 H       
  32 H32            1.1608     3.1822     0.4873 H       
  33 H33            6.8444    -0.5876    -0.3366 H       
  34 H34           -2.5096     1.0080     0.6567 H       
  35 H35           -4.6014    -0.3287     0.7442 H       
  36 H36           -4.4783    -2.7770     0.5375 H       
  37 H37           -0.3482    -2.6641     0.1572 H       
  38 H38            4.2107    -4.6096    -0.4115 H       
  39 H39            7.8950    -2.4297    -0.5879 H       
  40 H40            9.1217    -4.5439    -0.8673 H       
  41 H41            7.9032    -6.6806    -0.9155 H       
  42 H42            5.4538    -6.7146    -0.6879 H       
  43 H43            4.9871     3.9870    -0.2986 H       
  44 H44            6.4098     4.0404     0.7698 H       
  45 H45            6.6245     3.9127    -0.9926 H       
@<TRIPOS>BOND
   1    1    2 ar
   2    1    6 ar
   3    1   30 1
   4    2    3 ar
   5    2   15 1
   6    3    4 ar
   7    3   31 1
   8    4    5 ar
   9    4    7 1
  10    5    6 ar
  11    5   10 1
  12    6   32 1
  13    7    8 1
  14    7   11 1
  15    8    9 1
  16    8   13 2
  17    9   10 am
  18    9   27 am
  19   10   14 2
  20   11   12 2
  21   12   13 1
  22   12   16 1
  23   13   33 1
  24   15   17 ar
  25   15   21 ar
  26   16   22 ar
  27   16   23 ar
  28   17   18 ar
  29   17   34 1
  30   18   19 ar
  31   18   35 1
  32   19   20 ar
  33   19   36 1
  34   20   21 ar
  35   21   37 1
  36   22   26 ar
  37   22   38 1
  38   23   24 ar
  39   23   39 1
  40   24   25 ar
  41   24   40 1
  42   25   26 ar
  43   25   41 1
  44   26   42 1
  45   27   28 1
  46   27   29 2
  47   28   43 1
  48   28   44 1
  49   28   45 1

#	End of record

