#	Name: ASD01180011
#	Creating user name:	WinNT
#	Creation time:	15. 06. 2019 19:06

#	Modifying user name:	WinNT
#	Modification time:	15. 06. 2019 19:06

#	Program:	/corina/corina34_cracker 3.40 0067  02.08.2006

@<TRIPOS>MOLECULE
ASD01180011
  36   37    0    0    0
SMALL
NO_CHARGES


@<TRIPOS>ATOM
   1 N1            -0.0091     1.3000     0.1948 N.ar    
   2 C2             0.0077    -0.0130     0.0260 C.ar    
   3 C3             1.2139    -0.7037    -0.1840 C.ar    
   4 N4             2.3633    -0.0711    -0.2194 N.ar    
   5 C5             2.3920     1.2553    -0.0536 C.ar    
   6 C6             3.5943     1.9790    -0.0822 C.ar    
   7 C7             3.5696     3.3299     0.0925 C.ar    
   8 C8             2.3744     4.0194     0.3006 C.ar    
   9 C9             1.1766     3.3744     0.3394 C.ar    
  10 C10            1.1359     1.9784     0.1651 C.ar    
  11 C11            1.1867    -2.1988    -0.3714 C.3     
  12 C12            1.6818    -2.5456    -1.7769 C.3     
  13 C13            2.0956    -2.8596     0.6670 C.3     
  14 Cl14           2.4164     5.7415     0.5159 Cl      
  15 Cl15           5.0623     4.2155     0.0558 Cl      
  16 C16           -1.2620    -0.7647     0.0595 C.2     
  17 O17           -1.8595    -0.9874    -0.9668 O.2     
  18 C18           -1.8133    -1.2545     1.3738 C.3     
  19 C19           -2.7274    -0.1844     1.9740 C.3     
  20 C20           -2.6132    -2.5384     1.1446 C.3     
  21 H21            4.5325     1.4684    -0.2414 H       
  22 H22            0.2646     3.9294     0.5026 H       
  23 H23            0.1669    -2.5623    -0.2455 H       
  24 H24            2.7017    -2.1821    -1.9029 H       
  25 H25            1.6622    -3.6270    -1.9125 H       
  26 H26            1.0344    -2.0749    -2.5167 H       
  27 H27            1.7428    -2.6125     1.6683 H       
  28 H28            2.0759    -3.9409     0.5314 H       
  29 H29            3.1154    -2.4961     0.5410 H       
  30 H30           -0.9909    -1.4564     2.0601 H       
  31 H31           -3.5498     0.0175     1.2877 H       
  32 H32           -3.1261    -0.5387     2.9246 H       
  33 H33           -2.1575     0.7303     2.1373 H       
  34 H34           -1.9620    -3.3008     0.7170 H       
  35 H35           -3.0119    -2.8927     2.0952 H       
  36 H36           -3.4356    -2.3365     0.4583 H       
@<TRIPOS>BOND
   1    1    2 ar
   2    1   10 ar
   3    2    3 ar
   4    2   16 1
   5    3    4 ar
   6    3   11 1
   7    4    5 ar
   8    5    6 ar
   9    5   10 ar
  10    6    7 ar
  11    6   21 1
  12    7    8 ar
  13    7   15 1
  14    8    9 ar
  15    8   14 1
  16    9   10 ar
  17    9   22 1
  18   11   12 1
  19   11   13 1
  20   11   23 1
  21   12   24 1
  22   12   25 1
  23   12   26 1
  24   13   27 1
  25   13   28 1
  26   13   29 1
  27   16   17 2
  28   16   18 1
  29   18   19 1
  30   18   20 1
  31   18   30 1
  32   19   31 1
  33   19   32 1
  34   19   33 1
  35   20   34 1
  36   20   35 1
  37   20   36 1

#	End of record

