#	Name: ASD01150276
#	Creating user name:	WinNT
#	Creation time:	15. 06. 2019 19:03

#	Modifying user name:	WinNT
#	Modification time:	15. 06. 2019 19:03

#	Program:	/corina/corina34_cracker 3.40 0067  02.08.2006

@<TRIPOS>MOLECULE
ASD01150276
  53   55    0    0    0
SMALL
NO_CHARGES


@<TRIPOS>ATOM
   1 C1            -0.0158     1.3123     0.0093 C.2     
   2 N2             0.0021    -0.0041     0.0020 N.2     
   3 C3            -1.2464    -0.4793     0.0119 C.2     
   4 C4            -2.1135     0.6063     0.0263 C.2     
   5 N5            -1.3045     1.7452     0.0298 N.pl3   
   6 N6             1.0958     2.1231     0.0030 N.3     
   7 C7             2.3292     1.3253    -0.0137 C.3     
   8 C8             1.0586     3.0586    -1.1289 C.3     
   9 C9            -1.7378     3.0773     0.0432 C.ar    
  10 N10           -1.6125    -1.8198     0.0079 N.am    
  11 C11           -3.5221     0.5665     0.0401 C.2     
  12 O12           -4.2299     1.7166     0.0528 O.3     
  13 O13           -4.1010    -0.5049     0.0405 O.2     
  14 C14           -5.6542     1.6016     0.0663 C.3     
  15 C15           -6.0922     0.8354     1.3162 C.3     
  16 C16           -6.2786     2.9983     0.0794 C.3     
  17 C17           -6.1169     0.8478    -1.1821 C.3     
  18 C18           -1.4627     3.8874     1.1369 C.ar    
  19 C19           -1.8913     5.2003     1.1472 C.ar    
  20 C20           -2.5941     5.7081     0.0700 C.ar    
  21 C21           -2.8696     4.9039    -1.0206 C.ar    
  22 C22           -2.4384     3.5919    -1.0395 C.ar    
  23 C23           -0.6641    -2.7773    -0.0066 C.2     
  24 C24           -1.0513    -4.1952    -0.0108 C.2     
  25 O25            0.5125    -2.4680    -0.0162 O.2     
  26 C26           -2.4244    -4.6473    -0.0001 C.2     
  27 C27           -2.5367    -5.9705    -0.0072 C.2     
  28 S28           -0.9524    -6.7252    -0.0275 S.3     
  29 C29           -0.1536    -5.2196    -0.0311 C.2     
  30 Cl30          -4.0424    -6.8344     0.0032 Cl      
  31 Cl31           1.5707    -5.0188    -0.0496 Cl      
  32 H32            2.3464     0.7016    -0.9074 H       
  33 H33            3.1923     1.9909    -0.0183 H       
  34 H34            2.3639     0.6914     0.8724 H       
  35 H35            0.1697     3.6849    -1.0537 H       
  36 H36            1.9487     3.6875    -1.1100 H       
  37 H37            1.0299     2.4977    -2.0631 H       
  38 H38           -2.5506    -2.0664     0.0156 H       
  39 H39           -5.7625     1.3724     2.2056 H       
  40 H40           -7.1786     0.7477     1.3265 H       
  41 H41           -5.6474    -0.1596     1.3068 H       
  42 H42           -5.9666     3.5441    -0.8110 H       
  43 H43           -7.3650     2.9106     0.0897 H       
  44 H44           -5.9490     3.5353     0.9688 H       
  45 H45           -5.6721    -0.1473    -1.1915 H       
  46 H46           -7.2033     0.7601    -1.1718 H       
  47 H47           -5.8049     1.3936    -2.0726 H       
  48 H48           -0.9144     3.4911     1.9788 H       
  49 H49           -1.6776     5.8309     1.9976 H       
  50 H50           -2.9288     6.7349     0.0807 H       
  51 H51           -3.4188     5.3034    -1.8604 H       
  52 H52           -2.6539     2.9643    -1.8916 H       
  53 H53           -3.2718    -3.9778     0.0130 H       
@<TRIPOS>BOND
   1    1    2 2
   2    1    6 1
   3    1    5 1
   4    2    3 1
   5    3    4 2
   6    3   10 1
   7    4    5 1
   8    4   11 1
   9    5    9 1
  10    6    7 1
  11    6    8 1
  12    7   32 1
  13    7   33 1
  14    7   34 1
  15    8   35 1
  16    8   36 1
  17    8   37 1
  18    9   18 ar
  19    9   22 ar
  20   10   23 am
  21   10   38 1
  22   11   12 1
  23   11   13 2
  24   12   14 1
  25   14   15 1
  26   14   16 1
  27   14   17 1
  28   15   39 1
  29   15   40 1
  30   15   41 1
  31   16   42 1
  32   16   43 1
  33   16   44 1
  34   17   45 1
  35   17   46 1
  36   17   47 1
  37   18   19 ar
  38   18   48 1
  39   19   20 ar
  40   19   49 1
  41   20   21 ar
  42   20   50 1
  43   21   22 ar
  44   21   51 1
  45   22   52 1
  46   23   24 1
  47   23   25 2
  48   24   26 1
  49   24   29 2
  50   26   27 2
  51   26   53 1
  52   27   28 1
  53   27   30 1
  54   28   29 1
  55   29   31 1

#	End of record

