#	Name: ASD01120232
#	Creating user name:	WinNT
#	Creation time:	15. 06. 2019 18:59

#	Modifying user name:	WinNT
#	Modification time:	15. 06. 2019 18:59

#	Program:	/corina/corina34_cracker 3.40 0067  02.08.2006

@<TRIPOS>MOLECULE
ASD01120232
  61   62    0    0    0
SMALL
NO_CHARGES


@<TRIPOS>ATOM
   1 C1            -0.0167     1.3779     0.0096 C.ar    
   2 C2             0.0021    -0.0041     0.0020 C.ar    
   3 C3            -1.1857    -0.7116     0.0095 C.ar    
   4 C4            -2.3919    -0.0369     0.0251 C.ar    
   5 C5            -2.4106     1.3455     0.0336 C.ar    
   6 C6            -1.2232     2.0528     0.0305 C.ar    
   7 S7            -3.9483     2.2057     0.0529 S.o2    
   8 N8            -4.3616     2.4354     1.6399 N.am    
   9 C9            -3.6009     3.2212     2.4274 C.2     
  10 N10           -3.9372     3.4082     3.7191 N.am    
  11 O11           -3.6934     3.4955    -0.4862 O.2     
  12 O12           -4.9136     1.3142    -0.4882 O.2     
  13 O13           -2.6111     3.7615     1.9726 O.2     
  14 C14           -1.5368    11.4197    12.2882 C.ar    
  15 C15           -2.6249    12.1803    12.6725 C.ar    
  16 C16           -3.6289    11.6143    13.4362 C.ar    
  17 C17           -3.5444    10.2879    13.8154 C.ar    
  18 C18           -2.4559     9.5270    13.4309 C.ar    
  19 C19           -1.4551    10.0913    12.6626 C.ar    
  20 S20           -2.3483     7.8360    13.9142 S.o2    
  21 N21           -3.0815     6.9401    12.7301 N.am    
  22 C22           -2.5547     6.9024    11.4901 C.2     
  23 N23           -3.1515     6.1732    10.5263 N.am    
  24 O24           -0.9691     7.4956    13.8789 O.2     
  25 O25           -3.1531     7.6991    15.0773 O.2     
  26 O26           -1.5412     7.5261    11.2408 O.2     
  27 C27           -2.8446     5.1973     6.8768 C.3     
  28 C28           -3.7082     4.3052     5.9828 C.3     
  29 C29           -0.4425    12.0366    11.4558 C.3     
  30 C30            1.2780     2.1491     0.0014 C.3     
  31 C31           -3.1103     4.2624     4.5751 C.3     
  32 C32           -3.4426     5.2401     8.2845 C.3     
  33 C33           -2.5789     6.1322     9.1785 C.3     
  34 H34            0.9446    -0.5313    -0.0101 H       
  35 H35           -1.1711    -1.7915     0.0029 H       
  36 H36           -3.3198    -0.5895     0.0302 H       
  37 H37           -1.2378     3.1327     0.0372 H       
  38 H38           -5.1512     2.0044     2.0027 H       
  39 H39           -4.7269     2.9772     4.0819 H       
  40 H40           -2.6908    13.2169    12.3766 H       
  41 H41           -4.4788    12.2089    13.7372 H       
  42 H42           -4.3283     9.8460    14.4125 H       
  43 H43           -0.6048     9.4969    12.3623 H       
  44 H44           -3.8900     6.4425    12.9289 H       
  45 H45           -3.9600     5.6756    10.7252 H       
  46 H46           -1.8331     4.7940     6.9238 H       
  47 H47           -2.8149     6.2056     6.4638 H       
  48 H48           -3.7379     3.2969     6.3958 H       
  49 H49           -4.7198     4.7085     5.9357 H       
  50 H50            0.3172    12.4617    12.1118 H       
  51 H51            0.0094    11.2712    10.8248 H       
  52 H52           -0.8624    12.8230    10.8288 H       
  53 H53            1.5804     2.3405    -1.0282 H       
  54 H54            1.1397     3.0969     0.5217 H       
  55 H55            2.0505     1.5677     0.5048 H       
  56 H56           -2.0987     3.8591     4.6222 H       
  57 H57           -3.0806     5.2707     4.1621 H       
  58 H58           -4.4541     5.6434     8.2374 H       
  59 H59           -3.4723     4.2318     8.6974 H       
  60 H60           -2.5492     7.1405     8.7655 H       
  61 H61           -1.5674     5.7289     9.2255 H       
@<TRIPOS>BOND
   1    1    2 ar
   2    1   30 1
   3    1    6 ar
   4    2    3 ar
   5    2   34 1
   6    3    4 ar
   7    3   35 1
   8    4    5 ar
   9    4   36 1
  10    5    6 ar
  11    5    7 1
  12    6   37 1
  13    7    8 am
  14    7   11 2
  15    7   12 2
  16    8    9 am
  17    8   38 1
  18    9   10 am
  19    9   13 2
  20   10   31 1
  21   10   39 1
  22   14   15 ar
  23   14   29 1
  24   14   19 ar
  25   15   16 ar
  26   15   40 1
  27   16   17 ar
  28   16   41 1
  29   17   18 ar
  30   17   42 1
  31   18   19 ar
  32   18   20 1
  33   19   43 1
  34   20   21 am
  35   20   24 2
  36   20   25 2
  37   21   22 am
  38   21   44 1
  39   22   23 am
  40   22   26 2
  41   23   33 1
  42   23   45 1
  43   27   28 1
  44   27   32 1
  45   27   46 1
  46   27   47 1
  47   28   31 1
  48   28   48 1
  49   28   49 1
  50   29   50 1
  51   29   51 1
  52   29   52 1
  53   30   53 1
  54   30   54 1
  55   30   55 1
  56   31   56 1
  57   31   57 1
  58   32   33 1
  59   32   58 1
  60   32   59 1
  61   33   60 1
  62   33   61 1

#	End of record

