#	Name: ASD03091960
#	Creating user name:	WinNT
#	Creation time:	15. 06. 2019 20:31

#	Modifying user name:	WinNT
#	Modification time:	15. 06. 2019 20:31

#	Program:	/corina/corina34_cracker 3.40 0067  02.08.2006

@<TRIPOS>MOLECULE
ASD03091960
  52   55    0    0    0
SMALL
NO_CHARGES


@<TRIPOS>ATOM
   1 C1            -0.0170     1.3994     0.0097 C.ar    
   2 C2            -1.2293     2.0682     0.0306 C.ar    
   3 C3            -2.4101     1.3484     0.0435 C.ar    
   4 C4            -2.3918    -0.0369     0.0355 C.ar    
   5 C5            -1.1919    -0.7186     0.0148 C.ar    
   6 C6             0.0021    -0.0041     0.0020 C.ar    
   7 O7             1.1632     2.0664     0.0020 O.3     
   8 C8             2.2622     1.4580     0.6804 C.3     
   9 N9             2.4082     0.0564     0.2863 N.am    
  10 C10            1.3144    -0.6822    -0.0142 C.2     
  11 C11           -3.6891    -0.8036     0.0501 C.3     
  12 C12           -4.2050    -0.9447    -1.3588 C.ar    
  13 C13           -5.0417     0.0142    -1.8949 C.ar    
  14 C14           -3.8398    -2.0369    -2.1334 C.ar    
  15 C15           -4.3364    -2.1277    -3.4223 C.ar    
  16 C16           -5.1781    -1.1289    -3.8940 C.ar    
  17 N17           -5.4992    -0.1001    -3.1271 N.ar    
  18 O18            1.4088    -1.8632    -0.2876 O.2     
  19 C19            3.7407    -0.5486     0.2168 C.3     
  20 C20            3.8137    -1.7370     1.1791 C.3     
  21 O21            5.0946    -2.3607     1.0673 O.3     
  22 C22            4.0061    -1.0396    -1.2097 C.3     
  23 C23            5.3683    -1.7390    -1.2520 C.3     
  24 C24            5.3785    -2.8814    -0.2329 C.3     
  25 O25            4.0125     0.0740    -2.1051 O.3     
  26 C26           -3.7287     2.0776     0.0669 C.3     
  27 O27           -5.6711    -1.2061    -5.1557 O.3     
  28 Cl28          -1.2667     3.8038     0.0412 Cl      
  29 C29           -6.5314    -0.1477    -5.5820 C.3     
  30 H30           -1.1798    -1.7985     0.0090 H       
  31 H31            3.1775     1.9965     0.4345 H       
  32 H32            2.0937     1.5120     1.7559 H       
  33 H33           -3.5218    -1.7927     0.4765 H       
  34 H34           -4.4215    -0.2670     0.6532 H       
  35 H35           -5.3253     0.8683    -1.2979 H       
  36 H36           -3.1830    -2.7984    -1.7396 H       
  37 H37           -4.0724    -2.9639    -4.0527 H       
  38 H38            4.4916     0.1916     0.4929 H       
  39 H39            3.6680    -1.3868     2.2010 H       
  40 H40            3.0354    -2.4573     0.9270 H       
  41 H41            3.2264    -1.7419    -1.5046 H       
  42 H42            5.5409    -2.1401    -2.2506 H       
  43 H43            6.1528    -1.0236    -1.0051 H       
  44 H44            6.3600    -3.3556    -0.2282 H       
  45 H45            4.6207    -3.6166    -0.5035 H       
  46 H46            4.1753    -0.1644    -3.0281 H       
  47 H47           -4.0615     2.2594    -0.9550 H       
  48 H48           -4.4699     1.4715     0.5879 H       
  49 H49           -3.6086     3.0292     0.5846 H       
  50 H50           -6.8539    -0.3321    -6.6067 H       
  51 H51           -7.4031    -0.1029    -4.9292 H       
  52 H52           -5.9933     0.7991    -5.5352 H       
@<TRIPOS>BOND
   1    1    6 ar
   2    1    7 1
   3    1    2 ar
   4    2    3 ar
   5    2   28 1
   6    3    4 ar
   7    3   26 1
   8    4    5 ar
   9    4   11 1
  10    5    6 ar
  11    5   30 1
  12    6   10 1
  13    7    8 1
  14    8    9 1
  15    8   31 1
  16    8   32 1
  17    9   10 am
  18    9   19 1
  19   10   18 2
  20   11   12 1
  21   11   33 1
  22   11   34 1
  23   12   14 ar
  24   12   13 ar
  25   13   17 ar
  26   13   35 1
  27   14   15 ar
  28   14   36 1
  29   15   16 ar
  30   15   37 1
  31   16   17 ar
  32   16   27 1
  33   19   22 1
  34   19   20 1
  35   19   38 1
  36   20   21 1
  37   20   39 1
  38   20   40 1
  39   21   24 1
  40   22   23 1
  41   22   25 1
  42   22   41 1
  43   23   24 1
  44   23   42 1
  45   23   43 1
  46   24   44 1
  47   24   45 1
  48   25   46 1
  49   26   47 1
  50   26   48 1
  51   26   49 1
  52   27   29 1
  53   29   50 1
  54   29   51 1
  55   29   52 1

#	End of record

