#	Name: ASD00460050
#	Creating user name:	WinNT
#	Creation time:	15. 06. 2019 18:36

#	Modifying user name:	WinNT
#	Modification time:	15. 06. 2019 18:36

#	Program:	/corina/corina34_cracker 3.40 0067  02.08.2006

@<TRIPOS>MOLECULE
ASD00460050
  35   34    0    0    0
SMALL
NO_CHARGES


@<TRIPOS>ATOM
   1 O1            -0.0161     1.3381     0.0094 O.3     
   2 O2            -0.8238    -2.2282    -2.2113 O.2     
   3 O3             1.0565    -0.5939    -0.0112 O.2     
   4 O4            -1.0175    -7.0305    -4.7469 O.3     
   5 O5             1.1838    -6.9377    -4.5764 O.2     
   6 N6            -1.0054    -2.2118    -0.0002 N.am    
   7 N7             1.2989    -6.5408    -1.9529 N.3     
   8 C8            -2.0879    -0.4233     1.2690 C.3     
   9 C9            -1.2926    -0.7753     0.0102 C.3     
  10 C10           -0.4893    -4.3241    -1.1793 C.3     
  11 C11           -0.2797    -4.7918    -2.6209 C.3     
  12 C12           -1.2218    -0.6719     2.5056 C.3     
  13 C13           -2.4951     1.0507     1.2196 C.3     
  14 C14           -0.7847    -2.8464    -1.1686 C.2     
  15 C15            0.0202    -6.2921    -2.6318 C.3     
  16 C16            0.0021    -0.0041     0.0020 C.2     
  17 C17            0.1051    -6.7770    -4.0562 C.2     
  18 H18            0.8394     1.7888     0.0037 H       
  19 H19           -0.9126    -7.3396    -5.6571 H       
  20 H20           -0.9742    -2.7062     0.8337 H       
  21 H21            1.4886    -7.5298    -1.8899 H       
  22 H22            2.0539    -6.0565    -2.4150 H       
  23 H23           -2.9814    -1.0455     1.3201 H       
  24 H24           -1.8762    -0.5150    -0.8728 H       
  25 H25           -1.3271    -4.8653    -0.7399 H       
  26 H26            0.4130    -4.5185    -0.5995 H       
  27 H27           -1.1820    -4.5975    -3.2007 H       
  28 H28            0.5582    -4.2506    -3.0604 H       
  29 H29           -0.3284    -0.0497     2.4545 H       
  30 H30           -1.7884    -0.4212     3.4024 H       
  31 H31           -0.9318    -1.7220     2.5408 H       
  32 H32           -1.6016     1.6729     1.1685 H       
  33 H33           -3.1121     1.2278     0.3386 H       
  34 H34           -3.0616     1.3014     2.1164 H       
  35 H35           -0.7763    -6.8257    -2.1132 H       
@<TRIPOS>BOND
   1    1   16 1
   2    1   18 1
   3    2   14 2
   4    3   16 2
   5    4   17 1
   6    4   19 1
   7    5   17 2
   8    6   14 am
   9    6    9 1
  10    6   20 1
  11    7   15 1
  12    7   21 1
  13    7   22 1
  14    8   12 1
  15    8   13 1
  16    8    9 1
  17    8   23 1
  18    9   16 1
  19    9   24 1
  20   10   11 1
  21   10   14 1
  22   10   25 1
  23   10   26 1
  24   11   15 1
  25   11   27 1
  26   11   28 1
  27   12   29 1
  28   12   30 1
  29   12   31 1
  30   13   32 1
  31   13   33 1
  32   13   34 1
  33   15   17 1
  34   15   35 1

#	End of record

