#	Name: ASD09200052
#	Creating user name:	WinNT
#	Creation time:	15. 06. 2019 21:21

#	Modifying user name:	WinNT
#	Modification time:	15. 06. 2019 21:21

#	Program:	/corina/corina34_cracker 3.40 0067  02.08.2006

@<TRIPOS>MOLECULE
ASD09200052
  44   46    0    0    0
SMALL
NO_CHARGES


@<TRIPOS>ATOM
   1 C1            -0.1783     1.0545    -0.7006 C.ar    
   2 C2            -0.0059    -0.0175     0.1559 C.ar    
   3 C3            -1.0355    -0.4169     0.9895 C.ar    
   4 C4            -2.2419     0.2526     0.9708 C.ar    
   5 C5            -2.4228     1.3343     0.1098 C.ar    
   6 C6            -1.3793     1.7367    -0.7242 C.ar    
   7 C7            -3.7164     2.0571     0.0847 C.ar    
   8 C8            -4.9276     1.3511    -0.0518 C.ar    
   9 N9            -6.0647     2.0391    -0.0696 N.ar    
  10 C10           -6.0287     3.3613     0.0407 C.ar    
  11 N11           -4.8756     4.0059     0.1685 N.ar    
  12 N12           -3.7519     3.3791     0.1960 N.ar    
  13 N13           -7.2118     4.0789     0.0219 N.3     
  14 C14           -8.1298     3.6076     1.0666 C.3     
  15 C15           -9.3620     4.5142     1.1118 C.3     
  16 C16          -10.0567     4.4913    -0.2525 C.3     
  17 C17           -9.0648     4.9400    -1.3292 C.3     
  18 C18           -7.8413     4.0211    -1.3036 C.3     
  19 N19           -4.9336    -0.0277    -0.1653 N.pl3   
  20 C20            0.9481     1.4831    -1.6053 C.3     
  21 Cl21          -1.5944     3.0826    -1.7994 Cl      
  22 C22           -9.7329     4.8628    -2.7034 C.3     
  23 N23          -10.5165     3.1274    -0.5465 N.3     
  24 H24            0.9361    -0.5453     0.1740 H       
  25 H25           -0.8947    -1.2548     1.6561 H       
  26 H26           -3.0447    -0.0609     1.6216 H       
  27 H27           -8.4386     2.5860     0.8450 H       
  28 H28           -7.6248     3.6328     2.0323 H       
  29 H29          -10.0503     4.1549     1.8767 H       
  30 H30           -9.0554     5.5334     1.3470 H       
  31 H31          -10.9101     5.1692    -0.2382 H       
  32 H32           -8.7536     5.9659    -1.1324 H       
  33 H33           -7.1266     4.3467    -2.0595 H       
  34 H34           -8.1513     2.9976    -1.5141 H       
  35 H35           -4.0969    -0.5109    -0.2505 H       
  36 H36           -5.7745    -0.5111    -0.1598 H       
  37 H37            0.8767     0.9487    -2.5526 H       
  38 H38            0.8800     2.5557    -1.7872 H       
  39 H39            1.9024     1.2550    -1.1305 H       
  40 H40          -10.6063     5.5147    -2.7200 H       
  41 H41           -9.0264     5.1823    -3.4695 H       
  42 H42          -10.0421     3.8362    -2.8999 H       
  43 H43          -11.1686     2.8069     0.1536 H       
  44 H44          -10.9210     3.0731    -1.4693 H       
@<TRIPOS>BOND
   1    1    2 ar
   2    1   20 1
   3    1    6 ar
   4    2    3 ar
   5    2   24 1
   6    3    4 ar
   7    3   25 1
   8    4    5 ar
   9    4   26 1
  10    5    6 ar
  11    5    7 1
  12    6   21 1
  13    7    8 ar
  14    7   12 ar
  15    8    9 ar
  16    8   19 1
  17    9   10 ar
  18   10   11 ar
  19   10   13 1
  20   11   12 ar
  21   13   14 1
  22   13   18 1
  23   14   15 1
  24   14   27 1
  25   14   28 1
  26   15   16 1
  27   15   29 1
  28   15   30 1
  29   16   17 1
  30   16   23 1
  31   16   31 1
  32   17   18 1
  33   17   22 1
  34   17   32 1
  35   18   33 1
  36   18   34 1
  37   19   35 1
  38   19   36 1
  39   20   37 1
  40   20   38 1
  41   20   39 1
  42   22   40 1
  43   22   41 1
  44   22   42 1
  45   23   43 1
  46   23   44 1

#	End of record

