#	Name: ASD01230286
#	Creating user name:	WinNT
#	Creation time:	15. 06. 2019 19:12

#	Modifying user name:	WinNT
#	Modification time:	15. 06. 2019 19:12

#	Program:	/corina/corina34_cracker 3.40 0067  02.08.2006

@<TRIPOS>MOLECULE
ASD01230286
  88   99    0    0    0
SMALL
NO_CHARGES


@<TRIPOS>ATOM
   1 C1            -0.0184     1.5049     0.0103 C.3     
   2 N2             1.0186    -0.7569    -0.0113 N.2     
   3 O3            -3.5058    -1.5052     0.4559 O.3     
   4 C4             4.5611    -9.2917    -3.1924 C.3     
   5 N5             3.9515    -6.9499    -2.5294 N.2     
   6 O6             8.1817    -6.7803    -3.4160 O.3     
   7 C7             0.0021    -0.0041     0.0020 C.2     
   8 N8             0.6680    -2.0987     0.0554 N.pl3   
   9 O9             7.6119    -3.4461     1.0137 O.2     
  10 C10            4.8382    -7.8528    -2.8350 C.2     
  11 N11            4.5740    -5.7158    -2.2851 N.pl3   
  12 O12           -3.6976    -3.7466    -2.0054 O.2     
  13 C13           -0.7230    -2.1949     0.4925 C.3     
  14 N14            6.9655    -5.0221    -0.6975 Du      
  15 C15            5.8856    -5.9615    -2.4004 C.2     
  16 N16           -1.5569    -2.7022    -1.6235 Du      
  17 C17           -1.7111    -3.1375    -0.2050 C.3     
  18 C18            6.9491    -4.8780    -2.1977 C.3     
  19 C19           -3.0686    -2.8569     0.4377 C.3     
  20 C20            8.1986    -5.7214    -2.4596 C.3     
  21 C21           -2.5082    -0.5327     0.7377 C.3     
  22 C22            7.4154    -7.9181    -3.0226 C.3     
  23 C23           -1.2471    -0.8593    -0.0487 C.3     
  24 C24            6.0954    -7.2410    -2.7557 C.2     
  25 C25            1.5421    -3.2594    -0.2619 C.3     
  26 C26            3.9011    -4.4137    -2.0733 C.3     
  27 C27            1.6965    -4.7296    -0.0404 C.2     
  28 C28            2.6531    -5.1933    -1.9306 C.2     
  29 C29            2.8758    -5.3105    -0.2135 C.2     
  30 C30            1.4854    -4.5571    -1.7707 C.2     
  31 C31            4.0718    -4.5092    -0.5980 C.3     
  32 C32            1.3994    -3.0742    -1.7409 C.3     
  33 C33            5.6033    -4.3942    -0.7246 C.3     
  34 C34           -0.1410    -3.1697    -1.7655 C.3     
  35 C35            7.0087    -6.4064    -0.1698 C.3     
  36 C36           -1.4983    -1.2049    -1.5122 C.3     
  37 C37            5.8356    -6.4689     0.8042 C.3     
  38 C38           -2.8230    -0.5935    -1.9222 C.3     
  39 C39            5.9513    -5.1301     1.5226 C.3     
  40 C40           -3.2187    -1.5945    -3.0136 C.3     
  41 C41            6.9373    -4.3890     0.6668 C.2     
  42 C42           -2.9431    -2.8187    -2.1746 C.2     
  43 C43            3.9624    -3.0158    -0.5329 C.2     
  44 C44            2.6243    -2.3126    -2.1627 C.2     
  45 C45            2.7836    -2.4333    -0.3745 C.2     
  46 C46            3.7771    -2.9299    -2.3151 C.2     
  47 F47            1.2941     1.9891     0.0004 F       
  48 F48           -0.6950     1.9683    -1.1231 F       
  49 F49           -0.6732     1.9560     1.1613 F       
  50 F50            3.1790    -9.4975    -3.2602 F       
  51 F51            5.1375    -9.5833    -4.4333 F       
  52 F52            5.1098   -10.1289    -2.2150 F       
  53 H53           -0.8134    -2.2451     1.5685 H       
  54 H54            7.8969    -4.4358    -0.7903 H       
  55 H55           -1.4404    -3.1976    -2.5979 H       
  56 H56           -1.4493    -4.1752    -0.0476 H       
  57 H57            6.8828    -3.9662    -2.6637 H       
  58 H58           -3.0164    -3.1979     1.4903 H       
  59 H59           -3.8397    -3.4759    -0.0328 H       
  60 H60            8.5848    -6.1363    -1.5187 H       
  61 H61            9.0008    -5.0278    -2.8000 H       
  62 H62           -2.8801     0.4608     0.4668 H       
  63 H63           -2.2936    -0.5323     1.8114 H       
  64 H64            7.3314    -8.6247    -3.8374 H       
  65 H65            7.8105    -8.3699    -2.1260 H       
  66 H66            0.8660    -5.3429     0.2778 H       
  67 H67            2.5068    -6.2544    -1.9479 H       
  68 H68            2.9369    -6.3786    -0.0459 H       
  69 H69            0.6189    -5.2071    -1.7519 H       
  70 H70            5.7826    -3.5693     0.0594 H       
  71 H71            5.6853    -3.7076    -1.6259 H       
  72 H72           -0.2372    -4.0723    -1.0652 H       
  73 H73           -0.2617    -3.7493    -2.7458 H       
  74 H74            6.9342    -7.1786    -0.9110 H       
  75 H75            7.9395    -6.5564     0.3994 H       
  76 H76           -0.6797    -0.8167    -2.1244 H       
  77 H77            4.8985    -6.5572     0.2731 H       
  78 H78            5.9694    -7.2915     1.5016 H       
  79 H79           -3.5695    -0.5452    -1.1555 H       
  80 H80           -2.6733     0.3943    -2.3670 H       
  81 H81            4.9953    -4.6221     1.5592 H       
  82 H82            6.3471    -5.2717     2.5263 H       
  83 H83           -4.2622    -1.5153    -3.2691 H       
  84 H84           -2.5600    -1.5382    -3.8654 H       
  85 H85            4.8315    -2.3778    -0.5878 H       
  86 H86            2.5741    -1.2499    -2.3590 H       
  87 H87            2.7784    -1.3578    -0.2913 H       
  88 H88            4.6413    -2.3663    -2.6334 H       
@<TRIPOS>BOND
   1    1    7 1
   2    1   47 1
   3    1   48 1
   4    1   49 1
   5    2    7 2
   6    2    8 1
   7    3   19 1
   8    3   21 1
   9    4   10 1
  10    4   50 1
  11    4   51 1
  12    4   52 1
  13    5   10 2
  14    5   11 1
  15    6   20 1
  16    6   22 1
  17    7   23 1
  18    8   13 1
  19    8   25 1
  20    9   41 2
  21   10   24 1
  22   11   15 1
  23   11   26 1
  24   12   42 2
  25   13   17 1
  26   13   23 1
  27   13   53 1
  28   14   33 1
  29   14   35 1
  30   14   41 1
  31   14   18 1
  32   14   54 1
  33   15   18 1
  34   15   24 2
  35   16   34 1
  36   16   36 1
  37   16   42 1
  38   16   17 1
  39   16   55 1
  40   17   19 1
  41   17   56 1
  42   18   20 1
  43   18   57 1
  44   19   58 1
  45   19   59 1
  46   20   60 1
  47   20   61 1
  48   21   23 1
  49   21   62 1
  50   21   63 1
  51   22   24 1
  52   22   64 1
  53   22   65 1
  54   23   36 1
  55   25   27 1
  56   25   45 1
  57   25   32 1
  58   26   28 1
  59   26   46 1
  60   26   31 1
  61   27   29 2
  62   27   66 1
  63   28   30 2
  64   28   67 1
  65   29   31 1
  66   29   68 1
  67   30   32 1
  68   30   69 1
  69   31   33 1
  70   31   43 1
  71   32   34 1
  72   32   44 1
  73   33   70 1
  74   33   71 1
  75   34   72 1
  76   34   73 1
  77   35   37 1
  78   35   74 1
  79   35   75 1
  80   36   38 1
  81   36   76 1
  82   37   39 1
  83   37   77 1
  84   37   78 1
  85   38   40 1
  86   38   79 1
  87   38   80 1
  88   39   41 1
  89   39   81 1
  90   39   82 1
  91   40   42 1
  92   40   83 1
  93   40   84 1
  94   43   45 2
  95   43   85 1
  96   44   46 2
  97   44   86 1
  98   45   87 1
  99   46   88 1

#	End of record

