#	Name: ASD01881426
#	Creating user name:	WinNT
#	Creation time:	15. 06. 2019 19:42

#	Modifying user name:	WinNT
#	Modification time:	15. 06. 2019 19:42

#	Program:	/corina/corina34_cracker 3.40 0067  02.08.2006

@<TRIPOS>MOLECULE
ASD01881426
  50   53    0    0    0
SMALL
NO_CHARGES


@<TRIPOS>ATOM
   1 O1             1.6917     1.3562    -3.0146 O.3     
   2 C2            -6.0087    -3.6358    -5.7941 C.ar    
   3 C3            -4.7555    -3.3087    -5.3202 C.ar    
   4 C4            -6.9452    -2.6394    -6.0310 C.ar    
   5 C5            -6.6235    -1.3075    -5.7915 C.ar    
   6 C6            -5.3711    -0.9740    -5.3173 C.ar    
   7 C7            -4.4285    -1.9747    -5.0786 C.ar    
   8 C8            -3.0831    -1.6208    -4.5690 C.2     
   9 C9            -2.6801    -2.0379    -3.3143 C.2     
  10 C10           -2.1950    -0.8571    -5.3652 C.2     
  11 C11           -0.9732    -0.5363    -4.9001 C.2     
  12 N12           -0.5689    -0.9392    -3.6599 N.pl3   
  13 C13           -1.3981    -1.6865    -2.8586 C.2     
  14 C14            0.5790    -0.7666    -2.9479 C.2     
  15 N15            0.4249    -1.3723    -1.7990 N.2     
  16 N16           -0.7377    -1.9198    -1.7348 N.2     
  17 C17            1.8039    -0.0149    -3.4014 C.3     
  18 F18           -7.5373    -0.3399    -6.0236 F       
  19 O19           -8.1789    -2.9655    -6.4983 O.3     
  20 C20           -8.4883    -4.2818    -6.6158 C.ar    
  21 C21            2.5806     3.6021    -2.9359 C.3     
  22 C22            2.8078     2.1617    -3.3988 C.3     
  23 C23           -9.0519    -4.9807    -5.5512 C.ar    
  24 C24           -9.3526    -6.3180    -5.7107 C.ar    
  25 N25           -9.1125    -6.9334    -6.8529 N.ar    
  26 C26           -8.5797    -6.3054    -7.8842 C.ar    
  27 C27           -8.2556    -4.9668    -7.8064 C.ar    
  28 C28           -8.3270    -7.0589    -9.1647 C.3     
  29 C29           -3.6019    -2.8568    -2.4479 C.3     
  30 F30           -3.3192    -4.2160    -2.6207 F       
  31 F31           -3.4130    -2.5081    -1.1063 F       
  32 F32           -4.9292    -2.6066    -2.8124 F       
  33 H33           -6.2602    -4.6686    -5.9853 H       
  34 H34           -4.0278    -4.0852    -5.1359 H       
  35 H35           -5.1208     0.0601    -5.1315 H       
  36 H36           -2.4991    -0.5310    -6.3489 H       
  37 H37           -0.3043     0.0465    -5.5160 H       
  38 H38            1.8896    -0.0805    -4.4860 H       
  39 H39            2.6896    -0.4513    -2.9398 H       
  40 H40            1.6740     3.9935    -3.3975 H       
  41 H41            2.4740     3.6226    -1.8513 H       
  42 H42            3.4319     4.2165    -3.2290 H       
  43 H43            3.7144     1.7704    -2.9372 H       
  44 H44            2.9144     2.1412    -4.4834 H       
  45 H45           -9.2506    -4.4830    -4.6135 H       
  46 H46           -9.7895    -6.8679    -4.8903 H       
  47 H47           -7.8202    -4.4588    -8.6541 H       
  48 H48           -9.2055    -6.9900    -9.8062 H       
  49 H49           -7.4679    -6.6263    -9.6774 H       
  50 H50           -8.1248    -8.1054    -8.9366 H       
@<TRIPOS>BOND
   1    1   17 1
   2    1   22 1
   3    2    3 ar
   4    2    4 ar
   5    2   33 1
   6    3    7 ar
   7    3   34 1
   8    4    5 ar
   9    4   19 1
  10    5    6 ar
  11    5   18 1
  12    6    7 ar
  13    6   35 1
  14    7    8 1
  15    8    9 2
  16    8   10 1
  17    9   29 1
  18    9   13 1
  19   10   11 2
  20   10   36 1
  21   11   12 1
  22   11   37 1
  23   12   13 1
  24   12   14 1
  25   13   16 2
  26   14   15 2
  27   14   17 1
  28   15   16 1
  29   17   38 1
  30   17   39 1
  31   19   20 1
  32   20   23 ar
  33   20   27 ar
  34   21   22 1
  35   21   40 1
  36   21   41 1
  37   21   42 1
  38   22   43 1
  39   22   44 1
  40   23   24 ar
  41   23   45 1
  42   24   25 ar
  43   24   46 1
  44   25   26 ar
  45   26   27 ar
  46   26   28 1
  47   27   47 1
  48   28   48 1
  49   28   49 1
  50   28   50 1
  51   29   30 1
  52   29   31 1
  53   29   32 1

#	End of record

