#	Name: ASD01870078
#	Creating user name:	WinNT
#	Creation time:	15. 06. 2019 19:38

#	Modifying user name:	WinNT
#	Modification time:	15. 06. 2019 19:38

#	Program:	/corina/corina34_cracker 3.40 0067  02.08.2006

@<TRIPOS>MOLECULE
ASD01870078
  36   38    0    0    0
SMALL
NO_CHARGES


@<TRIPOS>ATOM
   1 C1            -0.0168     1.3887     0.0097 C.ar    
   2 C2             0.0021    -0.0041     0.0020 C.ar    
   3 C3             1.1779    -0.6914    -0.0125 C.ar    
   4 C4             2.3959     0.0078    -0.0204 C.ar    
   5 C5             2.3748     1.4259    -0.0131 C.ar    
   6 C6             1.1430     2.1023     0.0024 C.ar    
   7 N7             3.5623    -0.6492    -0.0341 N.ar    
   8 C8             4.7084    -0.0177    -0.0413 C.ar    
   9 C9             4.7724     1.3917    -0.0344 C.ar    
  10 C10            3.5906     2.1295    -0.0210 C.ar    
  11 C11            6.0734     2.0751    -0.0418 C.2     
  12 Cl12           6.1826    -0.9343    -0.0591 Cl      
  13 C13            6.1273     3.4259    -0.0351 C.2     
  14 C14            7.4210     4.1055    -0.0424 C.2     
  15 O15            8.4501     3.4553    -0.0546 O.2     
  16 C16            7.4800     5.5835    -0.0351 C.ar    
  17 C17            8.7143     6.2359    -0.0421 C.ar    
  18 C18            8.7622     7.6145    -0.0352 C.ar    
  19 C19            7.5906     8.3506    -0.0209 C.ar    
  20 C20            6.3639     7.7102    -0.0139 C.ar    
  21 C21            6.3017     6.3322    -0.0270 C.ar    
  22 C22            1.1719    -2.1984    -0.0195 C.3     
  23 H23           -0.9631     1.9091     0.0170 H       
  24 H24           -0.9310    -0.5479     0.0080 H       
  25 H25            1.1163     3.1820     0.0085 H       
  26 H26            3.6088     3.2093    -0.0158 H       
  27 H27            6.9863     1.4983    -0.0525 H       
  28 H28            5.2144     4.0028    -0.0243 H       
  29 H29            9.6294     5.6626    -0.0526 H       
  30 H30            9.7164     8.1204    -0.0406 H       
  31 H31            7.6337     9.4297    -0.0149 H       
  32 H32            5.4532     8.2906    -0.0028 H       
  33 H33            5.3437     5.8336    -0.0219 H       
  34 H34            1.1606    -2.5569    -1.0488 H       
  35 H35            2.0653    -2.5676     0.4840 H       
  36 H36            0.2854    -2.5606     0.5011 H       
@<TRIPOS>BOND
   1    1    2 ar
   2    1    6 ar
   3    1   23 1
   4    2    3 ar
   5    2   24 1
   6    3    4 ar
   7    3   22 1
   8    4    5 ar
   9    4    7 ar
  10    5    6 ar
  11    5   10 ar
  12    6   25 1
  13    7    8 ar
  14    8    9 ar
  15    8   12 1
  16    9   10 ar
  17    9   11 1
  18   10   26 1
  19   11   13 2
  20   11   27 1
  21   13   14 1
  22   13   28 1
  23   14   15 2
  24   14   16 1
  25   16   17 ar
  26   16   21 ar
  27   17   18 ar
  28   17   29 1
  29   18   19 ar
  30   18   30 1
  31   19   20 ar
  32   19   31 1
  33   20   21 ar
  34   20   32 1
  35   21   33 1
  36   22   34 1
  37   22   35 1
  38   22   36 1

#	End of record

