#	Name: ASD01028653
#	Creating user name:	WinNT
#	Creation time:	15. 06. 2019 18:57

#	Modifying user name:	WinNT
#	Modification time:	15. 06. 2019 18:57

#	Program:	/corina/corina34_cracker 3.40 0067  02.08.2006

@<TRIPOS>MOLECULE
ASD01028653
  41   45    0    0    0
SMALL
NO_CHARGES


@<TRIPOS>ATOM
   1 N1            -0.0157     1.3066     0.0092 N.ar    
   2 C2             0.0021    -0.0041     0.0020 C.ar    
   3 C3             1.1967    -0.7211    -0.0128 C.ar    
   4 C4             2.3902    -0.0572    -0.0206 C.ar    
   5 C5             2.3672     1.3504    -0.0132 C.ar    
   6 C6             3.5535     2.1011    -0.0200 C.ar    
   7 C7             3.4892     3.4613    -0.0122 C.ar    
   8 C8             2.2611     4.1187     0.0030 C.ar    
   9 C9             1.0917     3.4224     0.0100 C.ar    
  10 C10            1.1167     2.0170     0.0022 C.ar    
  11 C11            4.7634     4.2659    -0.0195 C.3     
  12 C12            6.1358     4.4136    -3.4179 C.2     
  13 C13            6.9844     3.8646    -4.3996 C.2     
  14 C14            7.7073     2.7519    -4.1068 C.2     
  15 C15            7.6042     2.1569    -2.8308 C.2     
  16 N16            6.8125     2.6694    -1.9127 N.2     
  17 N17            6.0563     3.8135    -2.1854 N.pl3   
  18 N18            5.3260     5.4626    -3.4161 N.2     
  19 C19            4.7366     5.5571    -2.2233 C.2     
  20 C20            5.1751     4.5418    -1.4427 C.2     
  21 O21            9.2438     0.3039    -3.3443 O.3     
  22 N22            9.7413    -0.6564    -2.8041 N.2     
  23 C23            9.3170    -0.8006    -1.5811 C.2     
  24 C24            8.4088     0.2521    -1.3433 C.2     
  25 C25            8.3942     0.9456    -2.5223 C.2     
  26 C26            9.7176    -1.8812    -0.6102 C.3     
  27 H27           -0.9341    -0.5425     0.0081 H       
  28 H28            1.1789    -1.8009    -0.0177 H       
  29 H29            3.3255    -0.5970    -0.0317 H       
  30 H30            4.5116     1.6027    -0.0311 H       
  31 H31            2.2365     5.1984     0.0097 H       
  32 H32            0.1481     3.9476     0.0221 H       
  33 H33            4.6001     5.2097     0.5009 H       
  34 H34            5.5504     3.7047     0.4842 H       
  35 H35            7.0593     4.3231    -5.3745 H       
  36 H36            8.3611     2.3221    -4.8512 H       
  37 H37            4.0252     6.3150    -1.9304 H       
  38 H38            7.8538     0.4615    -0.4407 H       
  39 H39           10.5855    -1.5525    -0.0386 H       
  40 H40            8.8901    -2.0837     0.0698 H       
  41 H41            9.9669    -2.7891    -1.1595 H       
@<TRIPOS>BOND
   1    1    2 ar
   2    1   10 ar
   3    2    3 ar
   4    2   27 1
   5    3    4 ar
   6    3   28 1
   7    4    5 ar
   8    4   29 1
   9    5    6 ar
  10    5   10 ar
  11    6    7 ar
  12    6   30 1
  13    7    8 ar
  14    7   11 1
  15    8    9 ar
  16    8   31 1
  17    9   10 ar
  18    9   32 1
  19   11   20 1
  20   11   33 1
  21   11   34 1
  22   12   13 1
  23   12   17 1
  24   12   18 2
  25   13   14 2
  26   13   35 1
  27   14   15 1
  28   14   36 1
  29   15   16 2
  30   15   25 1
  31   16   17 1
  32   17   20 1
  33   18   19 1
  34   19   20 2
  35   19   37 1
  36   21   22 1
  37   21   25 1
  38   22   23 2
  39   23   24 1
  40   23   26 1
  41   24   25 2
  42   24   38 1
  43   26   39 1
  44   26   40 1
  45   26   41 1

#	End of record

