#	Name: ASD01914046
#	Creating user name:	WinNT
#	Creation time:	15. 06. 2019 20:02

#	Modifying user name:	WinNT
#	Modification time:	15. 06. 2019 20:02

#	Program:	/corina/corina34_cracker 3.40 0067  02.08.2006

@<TRIPOS>MOLECULE
ASD01914046
  39   41    0    0    0
SMALL
NO_CHARGES


@<TRIPOS>ATOM
   1 C1            -0.0162     1.3756    -0.0468 C.ar    
   2 C2             0.0029    -0.0068    -0.0576 C.ar    
   3 C3             1.2085    -0.6838    -0.0686 C.ar    
   4 C4             2.3807     1.4071    -0.0581 C.ar    
   5 C5             1.1698     2.0840    -0.0471 C.ar    
   6 O6             3.5488     2.1018    -0.0580 O.3     
   7 C7             4.7572     1.3390    -0.0697 C.3     
   8 C8             5.9403     2.2723    -0.0677 C.ar    
   9 N9             7.1612     1.7723    -0.0774 N.ar    
  10 C10            8.2287     2.5435    -0.0761 C.ar    
  11 C11            8.1003     3.9329    -0.0639 C.ar    
  12 C12            6.8171     4.4935    -0.0535 C.ar    
  13 C13            5.7285     3.6396    -0.0614 C.ar    
  14 C14            9.2985     4.7983    -0.0616 C.2     
  15 N15           10.5282     4.2468    -0.0712 N.am    
  16 O16            9.1748     6.0077    -0.0509 O.2     
  17 C17            2.3972     0.0200    -0.0689 C.ar    
  18 C18           11.6601     5.0624    -0.1819 C.ar    
  19 C19           12.8306     4.7213     0.4830 C.ar    
  20 C20           13.9466     5.5273     0.3721 C.ar    
  21 C21           13.8990     6.6749    -0.4015 C.ar    
  22 C22           12.7328     7.0168    -1.0654 C.ar    
  23 C23           11.6161     6.2108    -0.9614 C.ar    
  24 F24           14.9917     7.4622    -0.5084 F       
  25 H25           -0.9591     1.9022    -0.0427 H       
  26 H26           -0.9253    -0.5589    -0.0570 H       
  27 H27            1.2208    -1.7637    -0.0766 H       
  28 H28            1.1543     3.1639    -0.0391 H       
  29 H29            4.7942     0.7035     0.8150 H       
  30 H30            4.7860     0.7177    -0.9648 H       
  31 H31            9.2119     2.0967    -0.0843 H       
  32 H32            6.6807     5.5648    -0.0436 H       
  33 H33            4.7239     4.0360    -0.0541 H       
  34 H34           10.6287     3.2845    -0.0015 H       
  35 H35            3.3386    -0.5093    -0.0775 H       
  36 H36           12.8681     3.8266     1.0868 H       
  37 H37           14.8570     5.2626     0.8893 H       
  38 H38           12.6978     7.9122    -1.6683 H       
  39 H39           10.7070     6.4776    -1.4797 H       
@<TRIPOS>BOND
   1    1    2 ar
   2    1    5 ar
   3    1   25 1
   4    2    3 ar
   5    2   26 1
   6    3   17 ar
   7    3   27 1
   8    4    5 ar
   9    4    6 1
  10    4   17 ar
  11    5   28 1
  12    6    7 1
  13    7    8 1
  14    7   29 1
  15    7   30 1
  16    8    9 ar
  17    8   13 ar
  18    9   10 ar
  19   10   11 ar
  20   10   31 1
  21   11   12 ar
  22   11   14 1
  23   12   13 ar
  24   12   32 1
  25   13   33 1
  26   14   15 am
  27   14   16 2
  28   15   18 1
  29   15   34 1
  30   17   35 1
  31   18   19 ar
  32   18   23 ar
  33   19   20 ar
  34   19   36 1
  35   20   21 ar
  36   20   37 1
  37   21   22 ar
  38   21   24 1
  39   22   23 ar
  40   22   38 1
  41   23   39 1

#	End of record

