#	Name: ASD03091390
#	Creating user name:	WinNT
#	Creation time:	15. 06. 2019 20:30

#	Modifying user name:	WinNT
#	Modification time:	15. 06. 2019 20:30

#	Program:	/corina/corina34_cracker 3.40 0067  02.08.2006

@<TRIPOS>MOLECULE
ASD03091390
  31   32    0    0    0
SMALL
NO_CHARGES


@<TRIPOS>ATOM
   1 C1            -0.0167     1.3823     0.0096 C.ar    
   2 C2             0.0021    -0.0041     0.0020 C.ar    
   3 C3             1.2051    -0.6811    -0.0131 C.ar    
   4 C4             2.4052     0.0201    -0.0203 C.ar    
   5 C5             2.4026     1.4023    -0.0129 C.ar    
   6 C6             1.1896     2.0954     0.0020 C.ar    
   7 C7             1.1787     3.5719     0.0095 C.2     
   8 O8             0.1196     4.1730     0.0224 O.2     
   9 C9             2.4387     4.3118     0.0014 C.2     
  10 C10            2.4287     5.6637     0.0084 C.2     
  11 C11            3.6954     6.4076     0.0003 C.ar    
  12 C12            4.9146     5.7190    -0.0204 C.ar    
  13 C13            3.6880     7.8079     0.0074 C.ar    
  14 C14            4.8777     8.5000    -0.0002 C.ar    
  15 C15            6.0855     7.8112    -0.0149 C.ar    
  16 C16            6.0985     6.4209    -0.0279 C.ar    
  17 O17            7.2558     8.4985    -0.0228 O.3     
  18 O18           -1.2003     2.0469     0.0189 O.3     
  19 O19            3.5852    -0.6556    -0.0343 O.3     
  20 H20           -0.9265    -0.5556     0.0083 H       
  21 H21            1.2139    -1.7610    -0.0190 H       
  22 H22            3.3362     1.9453    -0.0182 H       
  23 H23            3.3779     3.7787    -0.0100 H       
  24 H24            1.4895     6.1968     0.0198 H       
  25 H25            4.9258     4.6391    -0.0301 H       
  26 H26            2.7504     8.3439     0.0185 H       
  27 H27            4.8731     9.5800     0.0049 H       
  28 H28            7.0393     5.8908    -0.0438 H       
  29 H29            7.6033     8.6935     0.8582 H       
  30 H30           -1.5390     2.2347     0.9049 H       
  31 H31            3.9185    -0.8466    -0.9217 H       
@<TRIPOS>BOND
   1    1    2 ar
   2    1    6 ar
   3    1   18 1
   4    2    3 ar
   5    2   20 1
   6    3    4 ar
   7    3   21 1
   8    4    5 ar
   9    4   19 1
  10    5    6 ar
  11    5   22 1
  12    6    7 1
  13    7    8 2
  14    7    9 1
  15    9   10 2
  16    9   23 1
  17   10   11 1
  18   10   24 1
  19   11   13 ar
  20   11   12 ar
  21   12   16 ar
  22   12   25 1
  23   13   14 ar
  24   13   26 1
  25   14   15 ar
  26   14   27 1
  27   15   16 ar
  28   15   17 1
  29   16   28 1
  30   17   29 1
  31   18   30 1
  32   19   31 1

#	End of record

