#	Name: ASD02030045
#	Creating user name:	WinNT
#	Creation time:	15. 06. 2019 20:14

#	Modifying user name:	WinNT
#	Modification time:	15. 06. 2019 20:14

#	Program:	/corina/corina34_cracker 3.40 0067  02.08.2006

@<TRIPOS>MOLECULE
ASD02030045
  45   48    0    0    0
SMALL
NO_CHARGES


@<TRIPOS>ATOM
   1 N1            -0.0207     1.3308     0.0743 N.2     
   2 C2            -0.0069     0.0200     0.0808 C.2     
   3 O3             1.2869    -0.3705     0.0628 O.3     
   4 C4             2.0222     0.7579     0.0457 C.2     
   5 N5             1.1879     1.7712     0.0533 N.2     
   6 S6             3.7813     0.8559     0.0191 S.3     
   7 C7             3.9959     2.6530     0.0059 C.3     
   8 C8             3.4704     3.2391     1.3179 C.3     
   9 C9             5.4588     2.9832    -0.1415 C.2     
  10 N10            5.8341     4.2029    -0.5751 N.am    
  11 O11            6.2986     2.1513     0.1302 O.2     
  12 C12            7.1863     4.5491    -0.6008 C.ar    
  13 C13            7.6851     5.3966    -1.6127 C.ar    
  14 C14            9.0608     5.7350    -1.6187 C.ar    
  15 C15            9.9038     5.2213    -0.6188 C.ar    
  16 C16            9.3957     4.4052     0.3455 C.ar    
  17 C17            8.0450     4.0707     0.3653 C.ar    
  18 C18            6.8445     5.9098    -2.6130 C.ar    
  19 C19            7.3602     6.7245    -3.5742 C.ar    
  20 C20            8.7132     7.0577    -3.5813 C.ar    
  21 C21            9.5575     6.5794    -2.6270 C.ar    
  22 C22           -1.1879    -0.8670     0.1041 C.ar    
  23 C23           -2.4732    -0.3213     0.1211 C.ar    
  24 C24           -1.0222    -2.2536     0.1034 C.ar    
  25 C25           -2.1269    -3.0777     0.1252 C.ar    
  26 C26           -3.4032    -2.5309     0.1474 C.ar    
  27 C27           -3.5725    -1.1525     0.1428 C.ar    
  28 O28           -4.4895    -3.3467     0.1684 O.3     
  29 H29            3.4413     3.0790    -0.8302 H       
  30 H30            2.4122     3.0003     1.4244 H       
  31 H31            4.0250     2.8131     2.1540 H       
  32 H32            3.5996     4.3213     1.3099 H       
  33 H33            5.1646     4.8402    -0.8693 H       
  34 H34           10.9540     5.4734    -0.6153 H       
  35 H35           10.0508     4.0148     1.1103 H       
  36 H36            7.6672     3.4214     1.1412 H       
  37 H37            5.7939     5.6593    -2.6202 H       
  38 H38            6.7112     7.1180    -4.3426 H       
  39 H39            9.0975     7.7057    -4.3552 H       
  40 H40           10.6039     6.8460    -2.6450 H       
  41 H41           -2.6057     0.7506     0.1176 H       
  42 H42           -0.0300    -2.6797     0.0854 H       
  43 H43           -1.9996    -4.1502     0.1246 H       
  44 H44           -4.5668    -0.7312     0.1602 H       
  45 H45           -4.7879    -3.5815     1.0577 H       
@<TRIPOS>BOND
   1    1    2 2
   2    1    5 1
   3    2    3 1
   4    2   22 1
   5    3    4 1
   6    4    5 2
   7    4    6 1
   8    6    7 1
   9    7    8 1
  10    7    9 1
  11    7   29 1
  12    8   30 1
  13    8   31 1
  14    8   32 1
  15    9   10 am
  16    9   11 2
  17   10   12 1
  18   10   33 1
  19   12   13 ar
  20   12   17 ar
  21   13   14 ar
  22   13   18 ar
  23   14   15 ar
  24   14   21 ar
  25   15   16 ar
  26   15   34 1
  27   16   17 ar
  28   16   35 1
  29   17   36 1
  30   18   19 ar
  31   18   37 1
  32   19   20 ar
  33   19   38 1
  34   20   21 ar
  35   20   39 1
  36   21   40 1
  37   22   23 ar
  38   22   24 ar
  39   23   27 ar
  40   23   41 1
  41   24   25 ar
  42   24   42 1
  43   25   26 ar
  44   25   43 1
  45   26   27 ar
  46   26   28 1
  47   27   44 1
  48   28   45 1

#	End of record

