#	Name: ASD01912013
#	Creating user name:	WinNT
#	Creation time:	15. 06. 2019 19:58

#	Modifying user name:	WinNT
#	Modification time:	15. 06. 2019 19:58

#	Program:	/corina/corina34_cracker 3.40 0067  02.08.2006

@<TRIPOS>MOLECULE
ASD01912013
  38   41    0    0    0
SMALL
NO_CHARGES


@<TRIPOS>ATOM
   1 C1            -0.0167     1.3790     0.0096 C.ar    
   2 C2             0.0021    -0.0041     0.0020 C.ar    
   3 C3             1.2064    -0.6852    -0.0131 C.ar    
   4 C4             2.3966     0.0123    -0.0207 C.ar    
   5 C5             2.3843     1.4072    -0.0131 C.ar    
   6 C6             1.1673     2.0880     0.0021 C.ar    
   7 C7             3.6585     2.1621    -0.0207 C.ar    
   8 N8             4.7244     1.6973     0.6233 N.ar    
   9 C9             5.8650     2.3693     0.6187 C.ar    
  10 N10            5.9997     3.5245    -0.0195 N.ar    
  11 C11            4.9923     4.0588    -0.6845 C.ar    
  12 C12            3.7650     3.3856    -0.7168 C.ar    
  13 C13            2.6459     3.9289    -1.4261 C.1     
  14 N14            1.7581     4.3599    -1.9887 N.1     
  15 N15            6.9512     1.8504     1.3018 N.pl3   
  16 C16            8.1503     2.5329     1.3113 C.2     
  17 O17            9.2655     2.1221     1.9402 O.3     
  18 C18           10.2333     3.0432     1.7282 C.ar    
  19 C19            9.6576     4.0465     0.9342 C.ar    
  20 N20            8.3696     3.6709     0.7051 N.2     
  21 C21           11.5575     3.1507     2.1215 C.ar    
  22 C22           12.3046     4.2435     1.7309 C.ar    
  23 C23           11.7396     5.2372     0.9462 C.ar    
  24 C24           10.4243     5.1464     0.5467 C.ar    
  25 C25            1.2179    -2.1922    -0.0208 C.3     
  26 F26           -0.0975    -2.6686    -0.0104 F       
  27 F27            1.8698    -2.6477    -1.1718 F       
  28 F28            1.8920    -2.6592     1.1126 F       
  29 H29           -0.9598     1.9051     0.0169 H       
  30 H30           -0.9271    -0.5545     0.0083 H       
  31 H31            3.3360    -0.5205    -0.0322 H       
  32 H32            1.1514     3.1679     0.0077 H       
  33 H33            5.1142     5.0001    -1.1998 H       
  34 H34            6.8694     1.0070     1.7738 H       
  35 H35           12.0042     2.3807     2.7330 H       
  36 H36           13.3365     4.3253     2.0390 H       
  37 H37           12.3340     6.0877     0.6468 H       
  38 H38            9.9885     5.9228    -0.0645 H       
@<TRIPOS>BOND
   1    1    2 ar
   2    1    6 ar
   3    1   29 1
   4    2    3 ar
   5    2   30 1
   6    3    4 ar
   7    3   25 1
   8    4    5 ar
   9    4   31 1
  10    5    6 ar
  11    5    7 1
  12    6   32 1
  13    7    8 ar
  14    7   12 ar
  15    8    9 ar
  16    9   10 ar
  17    9   15 1
  18   10   11 ar
  19   11   12 ar
  20   11   33 1
  21   12   13 1
  22   13   14 3
  23   15   16 1
  24   15   34 1
  25   16   17 1
  26   16   20 2
  27   17   18 1
  28   18   19 ar
  29   18   21 ar
  30   19   20 1
  31   19   24 ar
  32   21   22 ar
  33   21   35 1
  34   22   23 ar
  35   22   36 1
  36   23   24 ar
  37   23   37 1
  38   24   38 1
  39   25   26 1
  40   25   27 1
  41   25   28 1

#	End of record

