#	Name: ASD03590002
#	Creating user name:	WinNT
#	Creation time:	15. 06. 2019 20:43

#	Modifying user name:	WinNT
#	Modification time:	15. 06. 2019 20:43

#	Program:	/corina/corina34_cracker 3.40 0067  02.08.2006

@<TRIPOS>MOLECULE
ASD03590002
 139  138    0    0    0
SMALL
NO_CHARGES


@<TRIPOS>ATOM
   1 C1             1.5033    -2.8130    -0.9206 C.3     
   2 C2             1.3755    -4.3004    -1.2552 C.3     
   3 C3            -0.0748    -4.7057    -1.1966 C.2     
   4 C4            -0.6366    -5.2804    -2.2311 C.2     
   5 C5            -2.0869    -5.6857    -2.1725 C.3     
   6 C6            -2.8295    -5.0633    -3.3267 C.2     
   7 C7            -3.5159    -5.8188    -4.1478 C.2     
   8 C8            -4.2585    -5.1964    -5.3020 C.3     
   9 C9            -3.8191    -5.8603    -6.6085 C.3     
  10 C10           -4.5729    -5.2283    -7.7804 C.3     
  11 C11           -4.1335    -5.8922    -9.0869 C.3     
  12 C12           -4.8874    -5.2603   -10.2588 C.3     
  13 C13           -4.4480    -5.9242   -11.5653 C.3     
  14 C14           -5.2019    -5.2923   -12.7372 C.3     
  15 C15           -4.7691    -5.9462   -14.0241 C.2     
  16 O16           -5.3020    -5.5498   -15.1906 O.3     
  17 C17           -4.8381    -6.2239   -16.3901 C.3     
  18 C18           -5.9591    -6.2414   -17.4312 C.3     
  19 O19           -6.2563    -4.8817   -17.8452 O.3     
  20 C20           -7.2239    -4.7215   -18.7616 C.2     
  21 C21           -7.5875    -3.3394   -19.2397 C.3     
  22 C22           -8.7103    -3.4366   -20.2745 C.3     
  23 C23           -9.0795    -2.0334   -20.7599 C.3     
  24 C24          -10.2023    -2.1307   -21.7946 C.3     
  25 C25          -10.5715    -0.7275   -22.2800 C.3     
  26 C26          -11.6943    -0.8247   -23.3148 C.3     
  27 C27          -12.0634     0.5785   -23.8002 C.3     
  28 C28          -13.1863     0.4813   -24.8349 C.3     
  29 C29          -13.5554     1.8845   -25.3203 C.3     
  30 C30          -14.6783     1.7872   -26.3551 C.3     
  31 C31          -15.0474     3.1904   -26.8405 C.3     
  32 C32          -16.1702     3.0932   -27.8752 C.3     
  33 C33          -16.5394     4.4964   -28.3606 C.3     
  34 O34           -7.8034    -5.6854   -19.2032 O.2     
  35 O35           -3.9425    -6.8272   -14.0059 O.2     
  36 C36           -3.6271    -5.4804   -16.9570 C.3     
  37 O37           -4.0264    -4.1772   -17.3862 O.3     
  38 P38           -3.0044    -3.1168   -18.0369 P.3     
  39 O39           -1.8619    -2.9062   -17.1199 O.2     
  40 O40           -2.4657    -3.6846   -19.4438 O.3     
  41 O41           -3.7640    -1.7179   -18.2781 O.3     
  42 C42           -3.1002    -0.5428   -18.7477 C.3     
  43 C43           -4.1099     0.6008   -18.8652 C.3     
  44 N44           -4.5741     0.9837   -17.5251 N.4     
  45 C45           -3.4176     1.3166   -16.6828 C.3     
  46 C46           -5.4575     2.1529   -17.6284 C.3     
  47 C47           -5.3116    -0.1356   -16.9240 C.3     
  48 C48          -17.6622     4.3991   -29.3954 C.3     
  49 C49          -18.0314     5.8024   -29.8808 C.3     
  50 C50          -19.1542     5.7051   -30.9155 C.3     
  51 C51          -19.5233     7.1083   -31.4009 C.3     
  52 C52            2.9757    -2.4015    -0.9802 C.3     
  53 C53            3.1035    -0.9140    -0.6456 C.3     
  54 C54            4.5759    -0.5025    -0.7051 C.3     
  55 H55            0.9331    -2.2279    -1.6423 H       
  56 H56            1.1155    -2.6314     0.0817 H       
  57 H57            1.7633    -4.4820    -2.2576 H       
  58 H58            1.9457    -4.8855    -0.5336 H       
  59 H59           -0.6510    -4.5224    -0.3017 H       
  60 H60           -0.0605    -5.4637    -3.1260 H       
  61 H61           -2.1636    -6.7712    -2.2342 H       
  62 H62           -2.5222    -5.3435    -1.2336 H       
  63 H63           -2.7958    -3.9943    -3.4770 H       
  64 H64           -3.5496    -6.8878    -3.9974 H       
  65 H65           -5.3302    -5.3397    -5.1641 H       
  66 H66           -4.0369    -4.1300    -5.3438 H       
  67 H67           -2.7473    -5.7170    -6.7464 H       
  68 H68           -4.0406    -6.9267    -6.5667 H       
  69 H69           -5.6447    -5.3716    -7.6425 H       
  70 H70           -4.3514    -4.1619    -7.8223 H       
  71 H71           -3.0618    -5.7490    -9.2248 H       
  72 H72           -4.3551    -6.9586    -9.0451 H       
  73 H73           -5.9592    -5.4036   -10.1209 H       
  74 H74           -4.6658    -4.1939   -10.3007 H       
  75 H75           -3.3763    -5.7809   -11.7032 H       
  76 H76           -4.6696    -6.9906   -11.5235 H       
  77 H77           -6.2736    -5.4355   -12.5993 H       
  78 H78           -4.9803    -4.2259   -12.7791 H       
  79 H79           -4.5540    -7.2473   -16.1449 H       
  80 H80           -5.6424    -6.8236   -18.2964 H       
  81 H81           -6.8514    -6.6921   -16.9968 H       
  82 H82           -7.9236    -2.7391   -18.3942 H       
  83 H83           -6.7145    -2.8707   -19.6939 H       
  84 H84           -8.3743    -4.0369   -21.1200 H       
  85 H85           -9.5834    -3.9054   -19.8203 H       
  86 H86           -9.4155    -1.4332   -19.9144 H       
  87 H87           -8.2065    -1.5647   -21.2141 H       
  88 H88           -9.8663    -2.7309   -22.6401 H       
  89 H89          -11.0753    -2.5994   -21.3405 H       
  90 H90          -10.9075    -0.1272   -21.4345 H       
  91 H91           -9.6984    -0.2588   -22.7342 H       
  92 H92          -11.3582    -1.4250   -24.1603 H       
  93 H93          -12.5673    -1.2934   -22.8606 H       
  94 H94          -12.3995     1.1787   -22.9547 H       
  95 H95          -11.1904     1.0472   -24.2543 H       
  96 H96          -12.8502    -0.1190   -25.6804 H       
  97 H97          -14.0593     0.0125   -24.3808 H       
  98 H98          -13.8915     2.4847   -24.4748 H       
  99 H99          -12.6824     2.3532   -25.7745 H       
 100 H100         -14.3422     1.1870   -27.2006 H       
 101 H101         -15.5513     1.3185   -25.9009 H       
 102 H102         -15.3835     3.7907   -25.9950 H       
 103 H103         -14.1744     3.6591   -27.2946 H       
 104 H104         -15.8342     2.4929   -28.7207 H       
 105 H105         -17.0433     2.6245   -27.4211 H       
 106 H106         -16.8754     5.0966   -27.5151 H       
 107 H107         -15.6664     4.9651   -28.8148 H       
 108 H108          -2.8622    -5.3904   -16.1857 H       
 109 H109          -3.2246    -6.0347   -17.8048 H       
 110 H110          -3.1618    -3.8465   -20.0952 H       
 111 H111          -2.3151    -0.2636   -18.0450 H       
 112 H112          -2.6597    -0.7403   -19.7250 H       
 113 H113          -3.6348     1.4572   -19.3436 H       
 114 H114          -4.9598     0.2749   -19.4648 H       
 115 H115          -2.8704     2.1471   -17.1289 H       
 116 H116          -3.7620     1.6008   -15.6885 H       
 117 H117          -2.7621     0.4491   -16.6062 H       
 118 H118          -6.3156     1.9058   -18.2534 H       
 119 H119          -5.8019     2.4370   -16.6341 H       
 120 H120          -4.9102     2.9834   -18.0745 H       
 121 H121          -4.6182    -0.9431   -16.6889 H       
 122 H122          -5.8009     0.2008   -16.0100 H       
 123 H123          -6.0629    -0.4951   -17.6272 H       
 124 H124         -17.3262     3.7989   -30.2409 H       
 125 H125         -18.5352     3.9304   -28.9412 H       
 126 H126         -18.3674     6.4026   -29.0353 H       
 127 H127         -17.1584     6.2711   -30.3349 H       
 128 H128         -18.8181     5.1049   -31.7610 H       
 129 H129         -20.0272     5.2364   -30.4614 H       
 130 H130         -19.8594     7.7086   -30.5554 H       
 131 H131         -18.6503     7.5770   -31.8551 H       
 132 H132         -20.3233     7.0390   -32.1381 H       
 133 H133           3.5459    -2.9865    -0.2585 H       
 134 H134           3.3635    -2.5830    -1.9825 H       
 135 H135           2.5333    -0.3290    -1.3672 H       
 136 H136           2.7157    -0.7324     0.3568 H       
 137 H137           4.6669     0.5572    -0.4667 H       
 138 H138           5.1461    -1.0875     0.0165 H       
 139 H139           4.9637    -0.6841    -1.7075 H       
@<TRIPOS>BOND
   1    1    2 1
   2    1   52 1
   3    1   55 1
   4    1   56 1
   5    2    3 1
   6    2   57 1
   7    2   58 1
   8    3    4 2
   9    3   59 1
  10    4    5 1
  11    4   60 1
  12    5    6 1
  13    5   61 1
  14    5   62 1
  15    6    7 2
  16    6   63 1
  17    7    8 1
  18    7   64 1
  19    8    9 1
  20    8   65 1
  21    8   66 1
  22    9   10 1
  23    9   67 1
  24    9   68 1
  25   10   11 1
  26   10   69 1
  27   10   70 1
  28   11   12 1
  29   11   71 1
  30   11   72 1
  31   12   13 1
  32   12   73 1
  33   12   74 1
  34   13   14 1
  35   13   75 1
  36   13   76 1
  37   14   15 1
  38   14   77 1
  39   14   78 1
  40   15   16 1
  41   15   35 2
  42   16   17 1
  43   17   18 1
  44   17   36 1
  45   17   79 1
  46   18   19 1
  47   18   80 1
  48   18   81 1
  49   19   20 1
  50   20   21 1
  51   20   34 2
  52   21   22 1
  53   21   82 1
  54   21   83 1
  55   22   23 1
  56   22   84 1
  57   22   85 1
  58   23   24 1
  59   23   86 1
  60   23   87 1
  61   24   25 1
  62   24   88 1
  63   24   89 1
  64   25   26 1
  65   25   90 1
  66   25   91 1
  67   26   27 1
  68   26   92 1
  69   26   93 1
  70   27   28 1
  71   27   94 1
  72   27   95 1
  73   28   29 1
  74   28   96 1
  75   28   97 1
  76   29   30 1
  77   29   98 1
  78   29   99 1
  79   30   31 1
  80   30  100 1
  81   30  101 1
  82   31   32 1
  83   31  102 1
  84   31  103 1
  85   32   33 1
  86   32  104 1
  87   32  105 1
  88   33   48 1
  89   33  106 1
  90   33  107 1
  91   36   37 1
  92   36  108 1
  93   36  109 1
  94   37   38 1
  95   38   39 2
  96   38   40 1
  97   38   41 1
  98   40  110 1
  99   41   42 1
 100   42   43 1
 101   42  111 1
 102   42  112 1
 103   43   44 1
 104   43  113 1
 105   43  114 1
 106   44   45 1
 107   44   46 1
 108   44   47 1
 109   45  115 1
 110   45  116 1
 111   45  117 1
 112   46  118 1
 113   46  119 1
 114   46  120 1
 115   47  121 1
 116   47  122 1
 117   47  123 1
 118   48   49 1
 119   48  124 1
 120   48  125 1
 121   49   50 1
 122   49  126 1
 123   49  127 1
 124   50   51 1
 125   50  128 1
 126   50  129 1
 127   51  130 1
 128   51  131 1
 129   51  132 1
 130   52   53 1
 131   52  133 1
 132   52  134 1
 133   53   54 1
 134   53  135 1
 135   53  136 1
 136   54  137 1
 137   54  138 1
 138   54  139 1

#	End of record

