#	Name: ASD01811833
#	Creating user name:	WinNT
#	Creation time:	15. 06. 2019 19:27

#	Modifying user name:	WinNT
#	Modification time:	15. 06. 2019 19:27

#	Program:	/corina/corina34_cracker 3.40 0067  02.08.2006

@<TRIPOS>MOLECULE
ASD01811833
  55   58    0    0    0
SMALL
NO_CHARGES


@<TRIPOS>ATOM
   1 C1            -0.0221     1.3656     0.0069 C.ar    
   2 C2            -0.0340    -0.0273     0.0124 C.ar    
   3 C3            -1.2421    -0.7128    -0.0127 C.ar    
   4 C4            -2.4329    -0.0213    -0.0432 C.ar    
   5 C5            -2.4280     1.3763    -0.0485 C.ar    
   6 C6            -1.2084     2.0603    -0.0178 C.ar    
   7 F7             1.1525     2.0326     0.0313 F       
   8 O8             1.1359    -0.7155     0.0419 O.3     
   9 C9             1.7259    -0.9374     1.3244 C.3     
  10 C10           -1.2498    -2.2198    -0.0071 C.3     
  11 C11           -1.1158    -2.7281    -1.4194 C.ar    
  12 C12            0.1287    -3.0728    -1.9137 C.ar    
  13 C13            0.2542    -3.5390    -3.2080 C.ar    
  14 C14           -0.8697    -3.6612    -4.0121 C.ar    
  15 C15           -2.1172    -3.3147    -3.5138 C.ar    
  16 C16           -2.2382    -2.8543    -2.2169 C.ar    
  17 O17           -0.7488    -4.1191    -5.2859 O.3     
  18 C18           -1.9484    -4.2191    -6.0560 C.3     
  19 C19           -3.5144     2.3710    -0.0777 C.2     
  20 N20           -3.0085     3.6161    -0.0707 N.am    
  21 C21           -1.5441     3.5307    -0.0327 C.3     
  22 O22           -4.7002     2.1034    -0.1047 O.2     
  23 C23           -3.7905     4.8548    -0.0942 C.3     
  24 C24           -4.7016     4.9061     1.1339 C.3     
  25 C25           -5.5182     6.1997     1.1094 C.3     
  26 C26           -6.3709     6.2405    -0.1603 C.3     
  27 C27           -5.4598     6.1892    -1.3884 C.3     
  28 C28           -4.6432     4.8956    -1.3639 C.3     
  29 O29           -3.9051     4.8680     2.3198 O.3     
  30 H30           -3.3695    -0.5586    -0.0634 H       
  31 H31            2.0196     0.0179     1.7595 H       
  32 H32            1.0031    -1.4270     1.9771 H       
  33 H33            2.6050    -1.5724     1.2150 H       
  34 H34           -0.4152    -2.5851     0.5913 H       
  35 H35           -2.1869    -2.5768     0.4201 H       
  36 H36            1.0034    -2.9771    -1.2875 H       
  37 H37            1.2265    -3.8078    -3.5938 H       
  38 H38           -2.9937    -3.4089    -4.1378 H       
  39 H39           -3.2091    -2.5844    -1.8285 H       
  40 H40           -2.4085    -3.2346    -6.1411 H       
  41 H41           -1.7112    -4.5965    -7.0507 H       
  42 H42           -2.6404    -4.9023    -5.5636 H       
  43 H43           -1.1640     4.0115     0.8687 H       
  44 H44           -1.1181     4.0029    -0.9179 H       
  45 H45           -3.1157     5.7107    -0.0820 H       
  46 H46           -5.3763     4.0502     1.1218 H       
  47 H47           -6.1673     6.2363     1.9843 H       
  48 H48           -4.8434     7.0557     1.1215 H       
  49 H49           -7.0457     5.3846    -0.1725 H       
  50 H50           -6.9527     7.1621    -0.1778 H       
  51 H51           -6.0673     6.2182    -2.2930 H       
  52 H52           -4.7850     7.0451    -1.3763 H       
  53 H53           -3.9941     4.8590    -2.2388 H       
  54 H54           -5.3180     4.0396    -1.3760 H       
  55 H55           -4.4180     4.8973     3.1391 H       
@<TRIPOS>BOND
   1    1    2 ar
   2    1    7 1
   3    1    6 ar
   4    2    3 ar
   5    2    8 1
   6    3    4 ar
   7    3   10 1
   8    4    5 ar
   9    4   30 1
  10    5    6 ar
  11    5   19 1
  12    6   21 1
  13    8    9 1
  14    9   31 1
  15    9   32 1
  16    9   33 1
  17   10   11 1
  18   10   34 1
  19   10   35 1
  20   11   12 ar
  21   11   16 ar
  22   12   13 ar
  23   12   36 1
  24   13   14 ar
  25   13   37 1
  26   14   15 ar
  27   14   17 1
  28   15   16 ar
  29   15   38 1
  30   16   39 1
  31   17   18 1
  32   18   40 1
  33   18   41 1
  34   18   42 1
  35   19   20 am
  36   19   22 2
  37   20   21 1
  38   20   23 1
  39   21   43 1
  40   21   44 1
  41   23   24 1
  42   23   28 1
  43   23   45 1
  44   24   25 1
  45   24   29 1
  46   24   46 1
  47   25   26 1
  48   25   47 1
  49   25   48 1
  50   26   27 1
  51   26   49 1
  52   26   50 1
  53   27   28 1
  54   27   51 1
  55   27   52 1
  56   28   53 1
  57   28   54 1
  58   29   55 1

#	End of record

