#	Name: ASD01180171
#	Creating user name:	WinNT
#	Creation time:	15. 06. 2019 19:06

#	Modifying user name:	WinNT
#	Modification time:	15. 06. 2019 19:06

#	Program:	/corina/corina34_cracker 3.40 0067  02.08.2006

@<TRIPOS>MOLECULE
ASD01180171
  61   63    0    0    0
SMALL
NO_CHARGES


@<TRIPOS>ATOM
   1 C1            -1.9584    -2.4481    -7.0337 C.2     
   2 C2            -1.4913    -3.1120    -5.7641 C.3     
   3 C3            -0.3598    -4.0902    -6.0865 C.3     
   4 O4            -1.4396    -2.7285    -8.0883 O.2     
   5 O5            -2.9546    -1.5493    -6.9938 O.3     
   6 C6             1.0908    -5.6422    -4.8931 C.2     
   7 C7             1.5481    -6.2922    -3.6501 C.ar    
   8 C8             2.5849    -7.2376    -3.6811 C.ar    
   9 C9             2.9770    -7.8155    -2.5041 C.ar    
  10 C10            2.3407    -7.4517    -1.3184 C.ar    
  11 N11            1.3631    -6.5558    -1.3168 N.ar    
  12 C12            0.9598    -5.9715    -2.4259 C.ar    
  13 O13            1.6128    -5.9243    -5.9544 O.2     
  14 N14            0.0943    -4.7356    -4.8523 N.am    
  15 N15            2.7346    -8.0342    -0.1257 N.pl3   
  16 C16            3.7917    -9.0485    -0.1200 C.3     
  17 C17            4.4266    -9.1156     1.2705 C.3     
  18 C18            5.5970   -10.1008     1.2497 C.3     
  19 C19            2.1178   -12.8566    -1.1080 C.ar    
  20 C20            3.3602   -12.4853    -1.6181 C.ar    
  21 C21            3.8960   -11.2549    -1.2956 C.ar    
  22 C22            3.2018   -10.3909    -0.4681 C.ar    
  23 C23            1.9683   -10.7545     0.0414 C.ar    
  24 C24            1.4231   -11.9824    -0.2746 C.ar    
  25 C25            1.5339   -14.1757    -1.4562 C.ar    
  26 C26            0.2916   -14.5469    -0.9461 C.ar    
  27 C27           -0.2468   -15.7750    -1.2732 C.ar    
  28 C28            0.4449   -16.6368    -2.1052 C.ar    
  29 C29            1.6788   -16.2735    -2.6140 C.ar    
  30 C30            2.2235   -15.0451    -2.2988 C.ar    
  31 C31           -0.1478   -17.9766    -2.4583 C.3     
  32 F32           -0.9227   -17.8530    -3.6166 F       
  33 F33            0.8813   -18.8975    -2.6817 F       
  34 F34           -0.9524   -18.4229    -1.4044 F       
  35 C35            4.9350    -7.7280     1.6665 C.3     
  36 H36           -1.1292    -2.3539    -5.0696 H       
  37 H37           -2.3214    -3.6535    -5.3105 H       
  38 H38           -0.7219    -4.8483    -6.7810 H       
  39 H39            0.4703    -3.5487    -6.5401 H       
  40 H40           -3.2196    -1.1501    -7.8337 H       
  41 H41            3.0624    -7.5033    -4.6127 H       
  42 H42            3.7716    -8.5468    -2.4941 H       
  43 H43            0.1643    -5.2420    -2.3885 H       
  44 H44           -0.3222    -4.5105    -4.0057 H       
  45 H45            2.3107    -7.7708     0.7060 H       
  46 H46            4.5526    -8.7845    -0.8545 H       
  47 H47            3.6828    -9.4501     1.9937 H       
  48 H48            6.3407    -9.7663     0.5265 H       
  49 H49            6.0493   -10.1486     2.2403 H       
  50 H50            5.2348   -11.0894     0.9676 H       
  51 H51            3.9031   -13.1592    -2.2642 H       
  52 H52            4.8589   -10.9661    -1.6903 H       
  53 H53            1.4306   -10.0762     0.6873 H       
  54 H54            0.4596   -12.2651     0.1232 H       
  55 H55           -0.2490   -13.8751    -0.2958 H       
  56 H56           -1.2097   -16.0638    -0.8784 H       
  57 H57            2.2147   -16.9503    -3.2629 H       
  58 H58            3.1846   -14.7603    -2.7007 H       
  59 H59            4.0899    -7.0474     1.7704 H       
  60 H60            5.4677    -7.7933     2.6152 H       
  61 H61            5.6095    -7.3546     0.8959 H       
@<TRIPOS>BOND
   1    1    2 1
   2    1    4 2
   3    1    5 1
   4    2    3 1
   5    2   36 1
   6    2   37 1
   7    3   14 1
   8    3   38 1
   9    3   39 1
  10    5   40 1
  11    6    7 1
  12    6   13 2
  13    6   14 am
  14    7    8 ar
  15    7   12 ar
  16    8    9 ar
  17    8   41 1
  18    9   10 ar
  19    9   42 1
  20   10   11 ar
  21   10   15 1
  22   11   12 ar
  23   12   43 1
  24   14   44 1
  25   15   16 1
  26   15   45 1
  27   16   17 1
  28   16   22 1
  29   16   46 1
  30   17   18 1
  31   17   35 1
  32   17   47 1
  33   18   48 1
  34   18   49 1
  35   18   50 1
  36   19   20 ar
  37   19   24 ar
  38   19   25 1
  39   20   21 ar
  40   20   51 1
  41   21   22 ar
  42   21   52 1
  43   22   23 ar
  44   23   24 ar
  45   23   53 1
  46   24   54 1
  47   25   26 ar
  48   25   30 ar
  49   26   27 ar
  50   26   55 1
  51   27   28 ar
  52   27   56 1
  53   28   29 ar
  54   28   31 1
  55   29   30 ar
  56   29   57 1
  57   30   58 1
  58   31   32 1
  59   31   33 1
  60   31   34 1
  61   35   59 1
  62   35   60 1
  63   35   61 1

#	End of record

