#	Name: ASD04590401
#	Creating user name:	WinNT
#	Creation time:	15. 06. 2019 20:50

#	Modifying user name:	WinNT
#	Modification time:	15. 06. 2019 20:50

#	Program:	/corina/corina34_cracker 3.40 0067  02.08.2006

@<TRIPOS>MOLECULE
ASD04590401
  66   71    0    0    0
SMALL
NO_CHARGES


@<TRIPOS>ATOM
   1 C1            -0.0104     1.3894    -0.0304 C.ar    
   2 C2             0.0203     0.0126     0.1385 C.ar    
   3 C3             2.3947     0.0161    -0.2119 C.ar    
   4 C4             2.3577     1.4115    -0.3821 C.ar    
   5 C5             1.1502     2.0882    -0.2894 C.ar    
   6 N6             3.6862    -0.3708    -0.3539 N.2     
   7 C7             4.4358     0.6771    -0.5965 C.2     
   8 N8             3.6603     1.8050    -0.6240 N.pl3   
   9 C9             5.8978     0.6457    -0.8077 C.2     
  10 C10            6.7167    -0.5069    -0.7832 C.2     
  11 C11            7.9917    -0.1132    -1.0212 C.2     
  12 N12            7.9865     1.2352    -1.1906 N.pl3   
  13 N13            6.6675     1.6868    -1.0579 N.2     
  14 N14            6.2861    -1.8236    -0.5534 N.am    
  15 C15            7.1775    -2.8345    -0.5574 C.2     
  16 O16            8.3548    -2.6063    -0.7601 O.2     
  17 C17            6.7255    -4.2168    -0.3162 C.ar    
  18 C18            1.2084    -0.6763     0.0501 C.ar    
  19 C19           -1.2577    -0.7344     0.4214 C.3     
  20 N20           -1.8738    -1.1483    -0.8463 N.3     
  21 C21           -2.9885    -2.0776    -0.6116 C.3     
  22 C22           -3.6380    -2.4357    -1.9510 C.3     
  23 O23           -2.6476    -2.9873    -2.8229 O.3     
  24 C24           -1.5476    -2.1085    -3.0738 C.3     
  25 C25           -0.8769    -1.7472    -1.7458 C.3     
  26 C26            7.6559    -5.2638    -0.1985 C.ar    
  27 C27            5.3625    -4.5097    -0.1944 C.ar    
  28 C28            4.9900    -5.8231     0.0316 C.ar    
  29 C29            5.9640    -6.8004     0.1300 C.ar    
  30 N30            7.2441    -6.5033     0.0181 N.ar    
  31 N31            9.0082    -4.9979    -0.3100 N.3     
  32 C32            9.7066    -6.0974    -0.9881 C.3     
  33 C33            9.6008    -4.7235     1.0053 C.3     
  34 C34           11.0587    -4.2925     0.8296 C.3     
  35 C35           11.8338    -5.4077     0.1224 C.3     
  36 C36           11.1676    -5.7074    -1.2233 C.3     
  37 H37           -0.9503     1.9170     0.0370 H       
  38 H38            1.1190     3.1598    -0.4201 H       
  39 H39            3.9675     2.7110    -0.7841 H       
  40 H40            8.8579    -0.7566    -1.0676 H       
  41 H41            8.7617     1.7886    -1.3745 H       
  42 H42            5.3471    -2.0056    -0.3917 H       
  43 H43            1.2245    -1.7480     0.1831 H       
  44 H44           -1.0375    -1.6160     1.0233 H       
  45 H45           -1.9449    -0.0858     0.9646 H       
  46 H46           -2.6131    -2.9834    -0.1354 H       
  47 H47           -3.7267    -1.6044     0.0359 H       
  48 H48           -4.4282    -3.1685    -1.7879 H       
  49 H49           -4.0606    -1.5379    -2.4021 H       
  50 H50           -0.8260    -2.6048    -3.7227 H       
  51 H51           -1.9095    -1.2013    -3.5575 H       
  52 H52           -0.0737    -1.0327    -1.9262 H       
  53 H53           -0.4678    -2.6477    -1.2877 H       
  54 H54            4.6197    -3.7299    -0.2744 H       
  55 H55            3.9465    -6.0832     0.1308 H       
  56 H56            5.6711    -7.8247     0.3068 H       
  57 H57            9.6650    -6.9920    -0.3668 H       
  58 H58            9.2255    -6.2976    -1.9454 H       
  59 H59            9.0429    -3.9259     1.4957 H       
  60 H60            9.5597    -5.6246     1.6173 H       
  61 H61           11.0997    -3.3837     0.2292 H       
  62 H62           11.5028    -4.1040     1.8070 H       
  63 H63           12.8624    -5.0876    -0.0437 H       
  64 H64           11.8260    -6.3054     0.7406 H       
  65 H65           11.6895    -6.5298    -1.7126 H       
  66 H66           11.2103    -4.8209    -1.8560 H       
@<TRIPOS>BOND
   1    1    2 ar
   2    1    5 ar
   3    1   37 1
   4    2   18 ar
   5    2   19 1
   6    3    4 ar
   7    3    6 1
   8    3   18 ar
   9    4    5 ar
  10    4    8 1
  11    5   38 1
  12    6    7 2
  13    7    8 1
  14    7    9 1
  15    8   39 1
  16    9   10 1
  17    9   13 2
  18   10   11 2
  19   10   14 1
  20   11   12 1
  21   11   40 1
  22   12   13 1
  23   12   41 1
  24   14   15 am
  25   14   42 1
  26   15   16 2
  27   15   17 1
  28   17   27 ar
  29   17   26 ar
  30   18   43 1
  31   19   20 1
  32   19   44 1
  33   19   45 1
  34   20   21 1
  35   20   25 1
  36   21   22 1
  37   21   46 1
  38   21   47 1
  39   22   23 1
  40   22   48 1
  41   22   49 1
  42   23   24 1
  43   24   25 1
  44   24   50 1
  45   24   51 1
  46   25   52 1
  47   25   53 1
  48   26   31 1
  49   26   30 ar
  50   27   28 ar
  51   27   54 1
  52   28   29 ar
  53   28   55 1
  54   29   30 ar
  55   29   56 1
  56   31   32 1
  57   31   33 1
  58   32   36 1
  59   32   57 1
  60   32   58 1
  61   33   34 1
  62   33   59 1
  63   33   60 1
  64   34   35 1
  65   34   61 1
  66   34   62 1
  67   35   36 1
  68   35   63 1
  69   35   64 1
  70   36   65 1
  71   36   66 1

#	End of record

