#	Name: ASD01914049
#	Creating user name:	WinNT
#	Creation time:	15. 06. 2019 20:02

#	Modifying user name:	WinNT
#	Modification time:	15. 06. 2019 20:02

#	Program:	/corina/corina34_cracker 3.40 0067  02.08.2006

@<TRIPOS>MOLECULE
ASD01914049
  39   41    0    0    0
SMALL
NO_CHARGES


@<TRIPOS>ATOM
   1 C1            -0.0142     1.3729     0.0941 C.ar    
   2 C2             0.0057    -0.0094     0.1173 C.ar    
   3 C3             1.2115    -0.6860     0.1148 C.ar    
   4 C4             2.3826     1.4051     0.0660 C.ar    
   5 C5             1.1714     2.0815     0.0685 C.ar    
   6 O6             3.5503     2.0999     0.0413 O.3     
   7 C7             4.7590     1.3376     0.0403 C.3     
   8 C8             5.9416     2.2712     0.0115 C.ar    
   9 N9             7.1626     1.7716     0.0059 N.ar    
  10 C10            8.2297     2.5430    -0.0193 C.ar    
  11 C11            8.1006     3.9322    -0.0414 C.ar    
  12 C12            6.8171     4.4923    -0.0362 C.ar    
  13 C13            5.7290     3.6381    -0.0146 C.ar    
  14 C14            9.2983     4.7979    -0.0693 C.2     
  15 N15           10.5282     4.2468    -0.0736 N.am    
  16 O16            9.1740     6.0071    -0.0883 O.2     
  17 C17            2.3998     0.0180     0.0893 C.ar    
  18 C18           11.6606     5.0627    -0.1852 C.ar    
  19 C19           11.6073     6.3864     0.2281 C.ar    
  20 C20           13.8998     6.6763    -0.4053 C.ar    
  21 C21           13.9592     5.3551    -0.8136 C.ar    
  22 C22           12.8430     4.5465    -0.7053 C.ar    
  23 C23           12.7262     7.1896     0.1175 C.ar    
  24 F24           12.9006     3.2568    -1.1037 F       
  25 Cl25          15.3029     7.6893    -0.5424 Cl      
  26 H26           -0.9574     1.8989     0.0916 H       
  27 H27           -0.9222    -0.5617     0.1376 H       
  28 H28            1.2244    -1.7658     0.1333 H       
  29 H29            1.1554     3.1613     0.0501 H       
  30 H30            4.8023     0.7240     0.9402 H       
  31 H31            4.7822     0.6945    -0.8395 H       
  32 H32            9.2131     2.0966    -0.0227 H       
  33 H33            6.6802     5.5635    -0.0524 H       
  34 H34            4.7243     4.0342    -0.0103 H       
  35 H35           10.6289     3.2849     0.0007 H       
  36 H36            3.3415    -0.5109     0.0874 H       
  37 H37           10.6917     6.7887     0.6358 H       
  38 H38           14.8779     4.9557    -1.2172 H       
  39 H39           12.6845     8.2197     0.4392 H       
@<TRIPOS>BOND
   1    1    2 ar
   2    1    5 ar
   3    1   26 1
   4    2    3 ar
   5    2   27 1
   6    3   17 ar
   7    3   28 1
   8    4    5 ar
   9    4    6 1
  10    4   17 ar
  11    5   29 1
  12    6    7 1
  13    7    8 1
  14    7   30 1
  15    7   31 1
  16    8    9 ar
  17    8   13 ar
  18    9   10 ar
  19   10   11 ar
  20   10   32 1
  21   11   12 ar
  22   11   14 1
  23   12   13 ar
  24   12   33 1
  25   13   34 1
  26   14   15 am
  27   14   16 2
  28   15   18 1
  29   15   35 1
  30   17   36 1
  31   18   19 ar
  32   18   22 ar
  33   19   23 ar
  34   19   37 1
  35   20   21 ar
  36   20   25 1
  37   20   23 ar
  38   21   22 ar
  39   21   38 1
  40   22   24 1
  41   23   39 1

#	End of record

