#	Name: ASD01911264
#	Creating user name:	WinNT
#	Creation time:	15. 06. 2019 19:57

#	Modifying user name:	WinNT
#	Modification time:	15. 06. 2019 19:57

#	Program:	/corina/corina34_cracker 3.40 0067  02.08.2006

@<TRIPOS>MOLECULE
ASD01911264
  44   47    0    0    0
SMALL
NO_CHARGES


@<TRIPOS>ATOM
   1 C1            -0.8557     0.7769    -0.5354 C.3     
   2 C2             0.1188    -0.0696     0.2896 C.3     
   3 N3             1.1058    -0.6724    -0.6165 N.am    
   4 C4             1.8567     0.2033    -1.5265 C.3     
   5 C5             0.8627     1.0467    -2.3312 C.3     
   6 C6            -0.0665     1.7894    -1.3685 C.3     
   7 C7             1.3187    -2.0032    -0.6127 C.2     
   8 O8             2.0560    -2.5032    -1.4400 O.2     
   9 C9             0.6561    -2.8544     0.3966 C.ar    
  10 C10            2.6844    -0.6353    -2.4661 C.2     
  11 N11            3.9351    -0.9864    -2.2986 N.2     
  12 C12            4.2528    -1.7272    -3.3843 C.2     
  13 N13            3.1869    -1.7819    -4.1397 N.2     
  14 O14            2.2785    -1.1654    -3.6241 O.3     
  15 C15            5.5657    -2.3595    -3.6660 C.ar    
  16 C16            5.7493    -3.0990    -4.8322 C.ar    
  17 C17            6.9720    -3.6856    -5.0906 C.ar    
  18 C18            8.0149    -3.5408    -4.1944 C.ar    
  19 C19            7.8388    -2.8070    -3.0323 C.ar    
  20 C20            6.6202    -2.2107    -2.7677 C.ar    
  21 F21            8.8610    -2.6695    -2.1597 F       
  22 C22            0.3926    -4.1965     0.1169 C.ar    
  23 C23           -0.2257    -4.9877     1.0620 C.ar    
  24 C24           -0.5859    -4.4536     2.2888 C.ar    
  25 C25           -0.3267    -3.1193     2.5735 C.ar    
  26 C26            0.2965    -2.3205     1.6362 C.ar    
  27 F27           -1.1918    -5.2334     3.2108 F       
  28 F28           -0.6801    -2.6039     3.7713 F       
  29 H29           -1.4294     0.1289    -1.1981 H       
  30 H30           -1.5342     1.3062     0.1335 H       
  31 H31            0.6283     0.5637     1.0159 H       
  32 H32           -0.4293    -0.8561     0.8084 H       
  33 H33            2.5080     0.8588    -0.9484 H       
  34 H34            1.4073     1.7680    -2.9405 H       
  35 H35            0.2729     0.3962    -2.9770 H       
  36 H36           -0.7589     2.4094    -1.9379 H       
  37 H37            0.5260     2.4210    -0.7066 H       
  38 H38            4.9359    -3.2136    -5.5333 H       
  39 H39            7.1142    -4.2592    -5.9946 H       
  40 H40            8.9697    -4.0015    -4.4006 H       
  41 H41            6.4828    -1.6387    -1.8620 H       
  42 H42            0.6723    -4.6146    -0.8389 H       
  43 H43           -0.4299    -6.0259     0.8454 H       
  44 H44            0.4981    -1.2829     1.8576 H       
@<TRIPOS>BOND
   1    1    2 1
   2    1    6 1
   3    1   29 1
   4    1   30 1
   5    2    3 1
   6    2   31 1
   7    2   32 1
   8    3    4 1
   9    3    7 am
  10    4    5 1
  11    4   10 1
  12    4   33 1
  13    5    6 1
  14    5   34 1
  15    5   35 1
  16    6   36 1
  17    6   37 1
  18    7    8 2
  19    7    9 1
  20    9   22 ar
  21    9   26 ar
  22   10   11 2
  23   10   14 1
  24   11   12 1
  25   12   13 2
  26   12   15 1
  27   13   14 1
  28   15   16 ar
  29   15   20 ar
  30   16   17 ar
  31   16   38 1
  32   17   18 ar
  33   17   39 1
  34   18   19 ar
  35   18   40 1
  36   19   20 ar
  37   19   21 1
  38   20   41 1
  39   22   23 ar
  40   22   42 1
  41   23   24 ar
  42   23   43 1
  43   24   25 ar
  44   24   27 1
  45   25   26 ar
  46   25   28 1
  47   26   44 1

#	End of record

