#	Name: ASD00731043
#	Creating user name:	WinNT
#	Creation time:	15. 06. 2019 18:37

#	Modifying user name:	WinNT
#	Modification time:	15. 06. 2019 18:37

#	Program:	/corina/corina34_cracker 3.40 0067  02.08.2006

@<TRIPOS>MOLECULE
ASD00731043
 239  241    0    0    0
SMALL
NO_CHARGES


@<TRIPOS>ATOM
   1 C1            -0.4104     1.8284    -1.1218 C.2     
   2 O2            -0.8348     1.3179    -2.1367 O.2     
   3 N3             1.5148     2.4349    -2.4690 N.am    
   4 C4             0.9296     2.5179    -1.1285 C.3     
   5 C5             0.7492     3.9870    -0.7409 C.3     
   6 C6            -3.4786     2.2888    -0.3937 C.2     
   7 O7            -3.0923     3.4144    -0.6273 O.2     
   8 N8            -1.1396     1.7839     0.0108 N.am    
   9 C9            -2.4906     1.2176    -0.0097 C.3     
  10 C10           -2.8382     0.6773     1.3789 C.3     
  11 C11           -1.9370    -0.4855     1.7055 C.2     
  12 O12           -1.0498    -0.7943     0.9457 O.2     
  13 O13           -2.1199    -1.1782     2.8407 O.3     
  14 C14           -7.1113     2.6865    -0.3030 C.2     
  15 O15           -7.2629     1.6671     0.3363 O.2     
  16 N16           -4.7915     1.9958    -0.4775 N.am    
  17 C17           -5.7519     3.0372    -0.8509 C.3     
  18 C18           -5.8272     3.1386    -2.3756 C.3     
  19 C19           -4.4801     3.6158    -2.9221 C.3     
  20 C20           -4.5553     3.7172    -4.4469 C.3     
  21 N21           -3.2655     4.1740    -4.9702 N.pl3   
  22 C22           -3.0930     4.3409    -6.3239 C.2     
  23 N23           -1.9454     4.7473    -6.7894 N.2     
  24 N24           -4.1310     4.0790    -7.1865 N.pl3   
  25 C25          -10.5447     3.8264    -0.8275 C.2     
  26 O26          -10.2306     4.5150    -1.7751 O.2     
  27 N27           -8.1586     3.5057    -0.5236 N.am    
  28 C28           -9.4801     3.1647     0.0090 C.3     
  29 C29           -9.5894     3.6545     1.4544 C.3     
  30 C30           -8.5917     2.8916     2.3282 C.3     
  31 C31           -8.6121     3.4661     3.7461 C.3     
  32 C32           -8.9791     1.4121     2.3717 C.3     
  33 C33          -14.1269     4.4815    -0.5083 C.2     
  34 O34          -14.1482     4.1126     0.6469 O.2     
  35 N35          -11.8460     3.6530    -0.5224 N.am    
  36 C36          -12.8810     4.2963    -1.3356 C.3     
  37 C37          -13.1988     3.4162    -2.5461 C.3     
  38 C38          -11.9683     3.3301    -3.4512 C.3     
  39 C39          -12.2861     2.4501    -4.6617 C.3     
  40 N40          -11.1078     2.3677    -5.5284 N.pl3   
  41 C41          -11.1559     1.6263    -6.6852 C.2     
  42 N42          -10.1075     1.5530    -7.4563 N.2     
  43 N43          -12.3096     0.9622    -7.0287 N.pl3   
  44 C44          -17.6295     5.3035    -1.1559 C.2     
  45 O45          -17.4876     5.2095    -2.3567 O.2     
  46 N46          -15.2175     5.0572    -1.0520 N.am    
  47 C47          -16.4287     5.2373    -0.2477 C.3     
  48 C48          -16.3214     6.5375     0.5516 C.3     
  49 C49          -15.1782     6.4223     1.5618 C.3     
  50 C50          -15.0709     7.7225     2.3611 C.3     
  51 C51          -13.9276     7.6073     3.3713 C.3     
  52 N52          -13.8247     8.8556     4.1388 N.3     
  53 C53          -21.1326     6.2974    -0.8343 C.2     
  54 O54          -20.9613     6.7454     0.2797 O.2     
  55 N55          -18.8611     5.4672    -0.6336 N.am    
  56 C56          -20.0285     5.5315    -1.5165 C.3     
  57 C57          -20.5097     4.1134    -1.8299 C.3     
  58 C58          -19.4518     3.3871    -2.6201 C.2     
  59 C59          -19.3873     3.2782    -3.9564 C.2     
  60 N60          -18.2871     2.5468    -4.3124 N.pl3   
  61 C61          -17.5992     2.1572    -3.1851 C.ar    
  62 C62          -16.4401     1.4166    -2.9787 C.ar    
  63 C63          -15.9916     1.1909    -1.6956 C.ar    
  64 C64          -16.6851     1.6955    -0.6044 C.ar    
  65 C65          -17.8264     2.4254    -0.7842 C.ar    
  66 C66          -18.2953     2.6714    -2.0757 C.ar    
  67 C67          -24.7143     6.8021    -1.3632 C.2     
  68 O68          -24.7613     5.9589    -2.2337 O.2     
  69 N69          -22.3105     6.4846    -1.4620 N.am    
  70 C70          -23.3838     7.2291    -0.7988 C.3     
  71 C71          -23.1867     8.7277    -1.0356 C.3     
  72 C72          -21.8955     9.1862    -0.3547 C.3     
  73 S73          -21.6618    10.9630    -0.6355 S.3     
  74 C74          -20.1077    11.3123     0.2324 C.3     
  75 C75          -28.1481     8.0522    -1.2665 C.2     
  76 O76          -27.8151     9.0881    -0.7308 O.2     
  77 N77          -25.8520     7.3572    -0.9006 N.am    
  78 C78          -27.1454     6.9421    -1.4492 C.3     
  79 C79          -27.6318     5.6899    -0.7169 C.3     
  80 C80          -26.6928     4.5457    -1.0003 C.ar    
  81 C81          -25.6053     4.3237    -0.1762 C.ar    
  82 C82          -24.7440     3.2742    -0.4362 C.ar    
  83 C83          -24.9705     2.4465    -1.5199 C.ar    
  84 C84          -26.0584     2.6679    -2.3434 C.ar    
  85 C85          -26.9222     3.7148    -2.0809 C.ar    
  86 C86          -30.9996     8.8777    -0.1461 C.2     
  87 O87          -30.6554     7.9986     0.6080 O.2     
  88 N88          -29.4149     7.8938    -1.6984 N.am    
  89 C89          -30.3897     8.9730    -1.5208 C.3     
  90 C90          -31.4896     8.8456    -2.5767 C.3     
  91 C91          -32.4387    10.0410    -2.4713 C.3     
  92 C92          -33.4644     9.9793    -3.6048 C.3     
  93 C93          -32.2718     7.5513    -2.3447 C.3     
  94 O94          -31.9253     9.7695     0.2407 O.3     
  95 C95            2.8514     2.5065    -2.6264 C.2     
  96 O96            3.5698     2.6398    -1.6583 O.2     
  97 C97           18.3920     2.5618   -13.0990 C.3     
  98 C98           17.7808     2.6485   -11.6991 C.3     
  99 C99           16.2579     2.5417   -11.7999 C.3     
 100 C100          15.6468     2.6284   -10.4000 C.3     
 101 C101          14.1238     2.5216   -10.5008 C.3     
 102 C102          13.5127     2.6083    -9.1009 C.3     
 103 C103          11.9897     2.5015    -9.2017 C.3     
 104 C104          11.3786     2.5882    -7.8018 C.3     
 105 C105           9.8557     2.4814    -7.9026 C.3     
 106 C106           9.2445     2.5681    -6.5027 C.3     
 107 C107           7.7216     2.4613    -6.6035 C.3     
 108 C108           7.1104     2.5480    -5.2036 C.3     
 109 C109           5.5875     2.4412    -5.3044 C.3     
 110 C110           4.9763     2.5279    -3.9044 C.3     
 111 C111           3.4534     2.4211    -4.0053 C.3     
 112 H112           0.9403     2.3283    -3.2432 H       
 113 H113           1.5920     2.0319    -0.4122 H       
 114 H114           0.3138     4.0488     0.2564 H       
 115 H115           1.7184     4.4857    -0.7458 H       
 116 H116           0.0868     4.4731    -1.4573 H       
 117 H117          -0.7700     2.1269     0.8394 H       
 118 H118          -2.5335     0.4063    -0.7364 H       
 119 H119          -2.6991     1.4642     2.1202 H       
 120 H120          -3.8767     0.3466     1.3906 H       
 121 H121          -1.5169    -1.9158     3.0069 H       
 122 H122          -5.1004     1.0955    -0.2907 H       
 123 H123          -5.4297     3.9934    -0.4386 H       
 124 H124          -6.0628     2.1600    -2.7937 H       
 125 H125          -6.6048     3.8497    -2.6545 H       
 126 H126          -4.2444     4.5944    -2.5040 H       
 127 H127          -3.7024     2.9047    -2.6432 H       
 128 H128          -4.7910     2.7385    -4.8650 H       
 129 H129          -5.3330     4.4283    -4.7258 H       
 130 H130          -2.5332     4.3588    -4.3615 H       
 131 H131          -1.8237     4.8650    -7.7445 H       
 132 H132          -4.9850     3.7765    -6.8401 H       
 133 H133          -4.0093     4.1967    -8.1416 H       
 134 H134          -8.0373     4.3210    -1.0349 H       
 135 H135          -9.6154     2.0835    -0.0195 H       
 136 H136          -9.3664     4.7207     1.4945 H       
 137 H137         -10.6009     3.4807     1.8214 H       
 138 H138          -7.5904     2.9928     1.9095 H       
 139 H139          -9.6134     3.3649     4.1647 H       
 140 H140          -7.9013     2.9226     4.3686 H       
 141 H141          -8.3361     4.5201     3.7150 H       
 142 H142          -9.9804     1.3109     2.7904 H       
 143 H143          -8.9646     1.0028     1.3616 H       
 144 H144          -8.2683     0.8686     2.9943 H       
 145 H145         -12.0973     3.1023     0.2355 H       
 146 H146         -12.5235     5.2679    -1.6766 H       
 147 H147         -13.4712     2.4167    -2.2071 H       
 148 H148         -14.0296     3.8500    -3.1026 H       
 149 H149         -11.6960     4.3297    -3.7902 H       
 150 H150         -11.1375     2.8963    -2.8947 H       
 151 H151         -12.5584     1.4505    -4.3228 H       
 152 H152         -13.1169     2.8839    -5.2183 H       
 153 H153         -10.2938     2.8362    -5.2861 H       
 154 H154         -10.1414     1.0299    -8.2724 H       
 155 H155         -13.0898     1.0167    -6.4548 H       
 156 H156         -12.3435     0.4391    -7.8448 H       
 157 H157         -15.2005     5.3523    -1.9759 H       
 158 H158         -16.5377     4.3971     0.4381 H       
 159 H159         -16.1237     7.3665    -0.1279 H       
 160 H160         -17.2573     6.7168     1.0809 H       
 161 H161         -15.3759     5.5933     2.2413 H       
 162 H162         -14.2423     6.2429     1.0325 H       
 163 H163         -14.8732     8.5515     1.6816 H       
 164 H164         -16.0068     7.9018     2.8904 H       
 165 H165         -14.1254     6.7783     4.0509 H       
 166 H166         -12.9918     7.4279     2.8421 H       
 167 H167         -13.0761     8.8047     4.8134 H       
 168 H168         -13.7057     9.6482     3.5258 H       
 169 H169         -18.9746     5.5423     0.3268 H       
 170 H170         -19.7556     6.0358    -2.4435 H       
 171 H171         -20.6981     3.5795    -0.8984 H       
 172 H172         -21.4293     4.1623    -2.4130 H       
 173 H173         -20.0988     3.7045    -4.6482 H       
 174 H174         -18.0301     2.3343    -5.2233 H       
 175 H175         -15.8937     1.0194    -3.8214 H       
 176 H176         -15.0916     0.6153    -1.5374 H       
 177 H177         -16.3200     1.5096     0.3949 H       
 178 H178         -18.3610     2.8145     0.0698 H       
 179 H179         -22.4475     6.1263    -2.3530 H       
 180 H180         -23.3605     7.0242     0.2715 H       
 181 H181         -23.1211     8.9209    -2.1064 H       
 182 H182         -24.0317     9.2757    -0.6187 H       
 183 H183         -21.9611     8.9930     0.7160 H       
 184 H184         -21.0505     8.6382    -0.7717 H       
 185 H185         -20.2180    11.0660     1.2885 H       
 186 H186         -19.3074    10.7111    -0.1992 H       
 187 H187         -19.8638    12.3697     0.1295 H       
 188 H188         -25.8144     8.0316    -0.2044 H       
 189 H189         -27.0360     6.7225    -2.5112 H       
 190 H190         -27.6563     5.8827     0.3556 H       
 191 H191         -28.6329     5.4326    -1.0628 H       
 192 H192         -25.4285     4.9704     0.6704 H       
 193 H193         -23.8940     3.1012     0.2072 H       
 194 H194         -24.2971     1.6269    -1.7234 H       
 195 H195         -26.2351     2.0214    -3.1903 H       
 196 H196         -27.7743     3.8856    -2.7221 H       
 197 H197         -29.6812     7.0653    -2.1269 H       
 198 H198         -29.8902     9.9355    -1.6308 H       
 199 H199         -31.0397     8.8253    -3.5694 H       
 200 H200         -32.9551    10.0113    -1.5119 H       
 201 H201         -31.8676    10.9662    -2.5481 H       
 202 H202         -34.1406    10.8309    -3.5297 H       
 203 H203         -32.9480    10.0089    -4.5642 H       
 204 H204         -34.0355     9.0541    -3.5281 H       
 205 H205         -32.7217     7.5716    -1.3521 H       
 206 H206         -33.0554     7.4605    -3.0970 H       
 207 H207         -31.5957     6.6997    -2.4199 H       
 208 H208         -32.2877     9.6677     1.1314 H       
 209 H209          18.0104     3.3774   -13.7132 H       
 210 H210          19.4770     2.6379   -13.0272 H       
 211 H211          18.1240     1.6082   -13.5540 H       
 212 H212          18.1624     1.8329   -11.0849 H       
 213 H213          18.0488     3.6021   -11.2441 H       
 214 H214          15.8763     3.3573   -12.4141 H       
 215 H215          15.9899     1.5881   -12.2549 H       
 216 H216          16.0283     1.8128    -9.7858 H       
 217 H217          15.9148     3.5820    -9.9450 H       
 218 H218          13.7423     3.3372   -11.1150 H       
 219 H219          13.8558     1.5680   -10.9558 H       
 220 H220          13.8942     1.7927    -8.4867 H       
 221 H221          13.7807     3.5619    -8.6459 H       
 222 H222          11.6082     3.3171    -9.8159 H       
 223 H223          11.7217     1.5479    -9.6567 H       
 224 H224          11.7602     1.7726    -7.1876 H       
 225 H225          11.6466     3.5418    -7.3468 H       
 226 H226           9.4741     3.2970    -8.5168 H       
 227 H227           9.5877     1.5278    -8.3576 H       
 228 H228           9.6261     1.7525    -5.8885 H       
 229 H229           9.5125     3.5217    -6.0477 H       
 230 H230           7.3400     3.2769    -7.2177 H       
 231 H231           7.4536     1.5077    -7.0585 H       
 232 H232           7.4920     1.7324    -4.5894 H       
 233 H233           7.3784     3.5016    -4.7486 H       
 234 H234           5.2059     3.2568    -5.9186 H       
 235 H235           5.3195     1.4876    -5.7594 H       
 236 H236           5.3579     1.7123    -3.2903 H       
 237 H237           5.2443     3.4815    -3.4495 H       
 238 H238           3.1854     1.4675    -4.4603 H       
 239 H239           3.0718     3.2367    -4.6195 H       
@<TRIPOS>BOND
   1    1    2 2
   2    1    4 1
   3    1    8 am
   4    3   95 am
   5    3    4 1
   6    3  112 1
   7    4    5 1
   8    4  113 1
   9    5  114 1
  10    5  115 1
  11    5  116 1
  12    6    7 2
  13    6    9 1
  14    6   16 am
  15    8    9 1
  16    8  117 1
  17    9   10 1
  18    9  118 1
  19   10   11 1
  20   10  119 1
  21   10  120 1
  22   11   12 2
  23   11   13 1
  24   13  121 1
  25   14   15 2
  26   14   17 1
  27   14   27 am
  28   16   17 1
  29   16  122 1
  30   17   18 1
  31   17  123 1
  32   18   19 1
  33   18  124 1
  34   18  125 1
  35   19   20 1
  36   19  126 1
  37   19  127 1
  38   20   21 1
  39   20  128 1
  40   20  129 1
  41   21   22 1
  42   21  130 1
  43   22   23 2
  44   22   24 1
  45   23  131 1
  46   24  132 1
  47   24  133 1
  48   25   26 2
  49   25   28 1
  50   25   35 am
  51   27   28 1
  52   27  134 1
  53   28   29 1
  54   28  135 1
  55   29   30 1
  56   29  136 1
  57   29  137 1
  58   30   31 1
  59   30   32 1
  60   30  138 1
  61   31  139 1
  62   31  140 1
  63   31  141 1
  64   32  142 1
  65   32  143 1
  66   32  144 1
  67   33   34 2
  68   33   36 1
  69   33   46 am
  70   35   36 1
  71   35  145 1
  72   36   37 1
  73   36  146 1
  74   37   38 1
  75   37  147 1
  76   37  148 1
  77   38   39 1
  78   38  149 1
  79   38  150 1
  80   39   40 1
  81   39  151 1
  82   39  152 1
  83   40   41 1
  84   40  153 1
  85   41   42 2
  86   41   43 1
  87   42  154 1
  88   43  155 1
  89   43  156 1
  90   44   45 2
  91   44   47 1
  92   44   55 am
  93   46   47 1
  94   46  157 1
  95   47   48 1
  96   47  158 1
  97   48   49 1
  98   48  159 1
  99   48  160 1
 100   49   50 1
 101   49  161 1
 102   49  162 1
 103   50   51 1
 104   50  163 1
 105   50  164 1
 106   51   52 1
 107   51  165 1
 108   51  166 1
 109   52  167 1
 110   52  168 1
 111   53   54 2
 112   53   56 1
 113   53   69 am
 114   55   56 1
 115   55  169 1
 116   56   57 1
 117   56  170 1
 118   57   58 1
 119   57  171 1
 120   57  172 1
 121   58   59 2
 122   58   66 1
 123   59   60 1
 124   59  173 1
 125   60   61 1
 126   60  174 1
 127   61   62 ar
 128   61   66 ar
 129   62   63 ar
 130   62  175 1
 131   63   64 ar
 132   63  176 1
 133   64   65 ar
 134   64  177 1
 135   65   66 ar
 136   65  178 1
 137   67   68 2
 138   67   70 1
 139   67   77 am
 140   69   70 1
 141   69  179 1
 142   70   71 1
 143   70  180 1
 144   71   72 1
 145   71  181 1
 146   71  182 1
 147   72   73 1
 148   72  183 1
 149   72  184 1
 150   73   74 1
 151   74  185 1
 152   74  186 1
 153   74  187 1
 154   75   76 2
 155   75   78 1
 156   75   88 am
 157   77   78 1
 158   77  188 1
 159   78   79 1
 160   78  189 1
 161   79   80 1
 162   79  190 1
 163   79  191 1
 164   80   81 ar
 165   80   85 ar
 166   81   82 ar
 167   81  192 1
 168   82   83 ar
 169   82  193 1
 170   83   84 ar
 171   83  194 1
 172   84   85 ar
 173   84  195 1
 174   85  196 1
 175   86   87 2
 176   86   89 1
 177   86   94 1
 178   88   89 1
 179   88  197 1
 180   89   90 1
 181   89  198 1
 182   90   91 1
 183   90   93 1
 184   90  199 1
 185   91   92 1
 186   91  200 1
 187   91  201 1
 188   92  202 1
 189   92  203 1
 190   92  204 1
 191   93  205 1
 192   93  206 1
 193   93  207 1
 194   94  208 1
 195   95   96 2
 196   95  111 1
 197   97   98 1
 198   97  209 1
 199   97  210 1
 200   97  211 1
 201   98   99 1
 202   98  212 1
 203   98  213 1
 204   99  100 1
 205   99  214 1
 206   99  215 1
 207  100  101 1
 208  100  216 1
 209  100  217 1
 210  101  102 1
 211  101  218 1
 212  101  219 1
 213  102  103 1
 214  102  220 1
 215  102  221 1
 216  103  104 1
 217  103  222 1
 218  103  223 1
 219  104  105 1
 220  104  224 1
 221  104  225 1
 222  105  106 1
 223  105  226 1
 224  105  227 1
 225  106  107 1
 226  106  228 1
 227  106  229 1
 228  107  108 1
 229  107  230 1
 230  107  231 1
 231  108  109 1
 232  108  232 1
 233  108  233 1
 234  109  110 1
 235  109  234 1
 236  109  235 1
 237  110  111 1
 238  110  236 1
 239  110  237 1
 240  111  238 1
 241  111  239 1

#	End of record

