#	Name: ASD03240624
#	Creating user name:	WinNT
#	Creation time:	15. 06. 2019 20:35

#	Modifying user name:	WinNT
#	Modification time:	15. 06. 2019 20:35

#	Program:	/corina/corina34_cracker 3.40 0067  02.08.2006

@<TRIPOS>MOLECULE
ASD03240624
  59   65    0    0    0
SMALL
NO_CHARGES


@<TRIPOS>ATOM
   1 C1            -0.0166     1.3754     0.0096 C.ar    
   2 C2             0.0021    -0.0041     0.0020 C.ar    
   3 N3             1.1422    -0.6683    -0.0058 N.ar    
   4 C4             2.3145    -0.0481    -0.0057 C.ar    
   5 C5             2.3702     1.3442    -0.0124 C.ar    
   6 C6             1.1861     2.0698     0.0018 C.ar    
   7 N7             3.4821    -0.8058     0.0220 N.pl3   
   8 C8             4.3592    -0.7192     1.0997 C.ar    
   9 C9             4.9952     0.4892     1.4036 C.ar    
  10 C10            4.7636     1.6836     0.5619 C.2     
  11 N11            3.5939     2.0276    -0.0512 N.pl3   
  12 C12            4.6053    -1.8388     1.8831 C.ar    
  13 C13            5.4651    -1.7534     2.9615 C.ar    
  14 C14            6.0857    -0.5552     3.2704 C.ar    
  15 C15            5.8562     0.5657     2.4981 C.ar    
  16 N16            5.6751     2.5945     0.2846 N.2     
  17 C17            5.1450     3.5399    -0.5062 C.2     
  18 C18            3.8228     3.2042    -0.7374 C.2     
  19 C19            2.8502     3.9542    -1.5553 C.ar    
  20 C20            2.7514     5.3423    -1.4311 C.ar    
  21 C21            2.0278     3.2803    -2.4616 C.ar    
  22 C22            1.1211     3.9879    -3.2228 C.ar    
  23 C23            1.0247     5.3620    -3.0904 C.ar    
  24 C24            1.8401     6.0368    -2.1988 C.ar    
  25 C25            5.8496     4.7304    -1.0369 C.ar    
  26 C26            0.0315     6.1280    -3.9256 C.3     
  27 C27            6.8245     5.3847    -0.2778 C.ar    
  28 N28           -1.0275     5.2735    -4.4792 N.3     
  29 C29           -0.4976     7.3997    -3.2417 C.3     
  30 C30           -0.4022     8.0837    -4.6157 C.3     
  31 C31            0.6850     7.0538    -4.9652 C.3     
  32 N32            7.4298     6.4432    -0.7872 N.ar    
  33 C33            7.1242     6.8842    -1.9971 C.ar    
  34 N34            6.2076     6.2929    -2.7467 N.ar    
  35 C35            5.5611     5.2254    -2.3123 C.ar    
  36 O36            7.7680     7.9730    -2.4821 O.3     
  37 H37           -0.9556     1.9091     0.0170 H       
  38 H38           -0.9306    -0.5486     0.0028 H       
  39 H39            1.2002     3.1497     0.0064 H       
  40 H40            3.6863    -1.4002    -0.7167 H       
  41 H41            4.1241    -2.7771     1.6497 H       
  42 H42            5.6540    -2.6271     3.5676 H       
  43 H43            6.7517    -0.4971     4.1185 H       
  44 H44            6.3417     1.4993     2.7410 H       
  45 H45            3.3869     5.8702    -0.7354 H       
  46 H46            2.1022     2.2080    -2.5662 H       
  47 H47            0.4849     3.4684    -3.9241 H       
  48 H48            1.7595     7.1093    -2.1006 H       
  49 H49            7.0787     5.0307     0.7103 H       
  50 H50           -0.6364     4.4652    -4.9392 H       
  51 H51           -1.6829     4.9998    -3.7625 H       
  52 H52           -1.5184     7.3039    -2.8716 H       
  53 H53            0.1856     7.8129    -2.4998 H       
  54 H54           -1.3064     7.9851    -5.2163 H       
  55 H55           -0.0338     9.1085    -4.5686 H       
  56 H56            1.6916     7.3725    -4.6945 H       
  57 H57            0.6190     6.6788    -5.9866 H       
  58 H58            4.8144     4.7480    -2.9294 H       
  59 H59            8.5767     7.7666    -2.9705 H       
@<TRIPOS>BOND
   1    1    2 ar
   2    1    6 ar
   3    1   37 1
   4    2    3 ar
   5    2   38 1
   6    3    4 ar
   7    4    5 ar
   8    4    7 1
   9    5    6 ar
  10    5   11 1
  11    6   39 1
  12    7    8 1
  13    7   40 1
  14    8    9 ar
  15    8   12 ar
  16    9   10 1
  17    9   15 ar
  18   10   11 1
  19   10   16 2
  20   11   18 1
  21   12   13 ar
  22   12   41 1
  23   13   14 ar
  24   13   42 1
  25   14   15 ar
  26   14   43 1
  27   15   44 1
  28   16   17 1
  29   17   18 2
  30   17   25 1
  31   18   19 1
  32   19   20 ar
  33   19   21 ar
  34   20   24 ar
  35   20   45 1
  36   21   22 ar
  37   21   46 1
  38   22   23 ar
  39   22   47 1
  40   23   24 ar
  41   23   26 1
  42   24   48 1
  43   25   27 ar
  44   25   35 ar
  45   26   29 1
  46   26   28 1
  47   26   31 1
  48   27   32 ar
  49   27   49 1
  50   28   50 1
  51   28   51 1
  52   29   30 1
  53   29   52 1
  54   29   53 1
  55   30   31 1
  56   30   54 1
  57   30   55 1
  58   31   56 1
  59   31   57 1
  60   32   33 ar
  61   33   34 ar
  62   33   36 1
  63   34   35 ar
  64   35   58 1
  65   36   59 1

#	End of record

