#	Name: ASD00431235
#	Creating user name:	WinNT
#	Creation time:	15. 06. 2019 18:35

#	Modifying user name:	WinNT
#	Modification time:	15. 06. 2019 18:35

#	Program:	/corina/corina34_cracker 3.40 0067  02.08.2006

@<TRIPOS>MOLECULE
ASD00431235
  44   47    0    0    0
SMALL
NO_CHARGES


@<TRIPOS>ATOM
   1 C1             3.2479    12.1920     1.7713 C.3     
   2 C2             1.8658    12.1770     1.1149 C.3     
   3 C3             3.9894    10.9309     1.4097 C.2     
   4 C4             4.0302     9.8237     2.1552 C.2     
   5 C5             4.7727     8.7880     1.6247 C.2     
   6 C6             5.3431     9.0582     0.4311 C.2     
   7 S7             4.9245    10.6942    -0.0607 S.3     
   8 S8             6.6075     6.4821     0.1277 S.3     
   9 C9             7.5128     6.2935    -1.3099 C.2     
  10 N10            7.4622     7.3766    -2.0201 N.2     
  11 C11            6.7597     8.3797    -1.5358 C.2     
  12 C12            6.1814     8.1259    -0.3417 C.2     
  13 O13            8.1880     5.1714    -1.6574 O.3     
  14 C14            8.7903     5.1404    -2.8758 C.ar    
  15 C15            9.9865     5.8143    -3.0757 C.ar    
  16 C16           10.5982     5.7829    -4.3134 C.ar    
  17 C17           10.0165     5.0778    -5.3571 C.ar    
  18 C18            8.8203     4.4039    -5.1572 C.ar    
  19 C19            8.2117     4.4302    -3.9178 C.ar    
  20 O20           10.6183     5.0476    -6.5758 O.3     
  21 C21           11.7687     5.7525    -6.7368 C.ar    
  22 C22           12.9826     5.1982    -6.3563 C.ar    
  23 C23           14.1506     5.9170    -6.5210 C.ar    
  24 C24           14.1110     7.1878    -7.0645 C.ar    
  25 C25           12.9028     7.7425    -7.4444 C.ar    
  26 C26           11.7324     7.0258    -7.2872 C.ar    
  27 O27            3.9830    13.3264     1.3077 O.3     
  28 H28            3.1353    12.2496     2.8539 H       
  29 H29            1.3051    11.3117     1.4685 H       
  30 H30            1.3295    13.0891     1.3765 H       
  31 H31            1.9784    12.1194     0.0323 H       
  32 H32            3.5199     9.7445     3.1037 H       
  33 H33            4.8883     7.8377     2.1246 H       
  34 H34            6.6548     9.3241    -2.0492 H       
  35 H35           10.4390     6.3637    -2.2635 H       
  36 H36           11.5294     6.3074    -4.4690 H       
  37 H37            8.3673     3.8554    -5.9698 H       
  38 H38            7.2830     3.9017    -3.7609 H       
  39 H39           13.0140     4.2057    -5.9315 H       
  40 H40           15.0956     5.4861    -6.2248 H       
  41 H41           15.0254     7.7482    -7.1921 H       
  42 H42           12.8746     8.7353    -7.8687 H       
  43 H43           10.7895     7.4577    -7.5885 H       
  44 H44            4.1214    13.3412     0.3508 H       
@<TRIPOS>BOND
   1    1    2 1
   2    1    3 1
   3    1   27 1
   4    1   28 1
   5    2   29 1
   6    2   30 1
   7    2   31 1
   8    3    4 2
   9    3    7 1
  10    4    5 1
  11    4   32 1
  12    5    6 2
  13    5   33 1
  14    6    7 1
  15    6   12 1
  16    8    9 1
  17    8   12 1
  18    9   10 2
  19    9   13 1
  20   10   11 1
  21   11   12 2
  22   11   34 1
  23   13   14 1
  24   14   15 ar
  25   14   19 ar
  26   15   16 ar
  27   15   35 1
  28   16   17 ar
  29   16   36 1
  30   17   18 ar
  31   17   20 1
  32   18   19 ar
  33   18   37 1
  34   19   38 1
  35   20   21 1
  36   21   22 ar
  37   21   26 ar
  38   22   23 ar
  39   22   39 1
  40   23   24 ar
  41   23   40 1
  42   24   25 ar
  43   24   41 1
  44   25   26 ar
  45   25   42 1
  46   26   43 1
  47   27   44 1

#	End of record

