#	Name: ASD03331616
#	Creating user name:	WinNT
#	Creation time:	15. 06. 2019 20:39

#	Modifying user name:	WinNT
#	Modification time:	15. 06. 2019 20:39

#	Program:	/corina/corina34_cracker 3.40 0067  02.08.2006

@<TRIPOS>MOLECULE
ASD03331616
  69   71    0    0    0
SMALL
NO_CHARGES


@<TRIPOS>ATOM
   1 C1            -0.5022     2.3735    -1.4263 C.3     
   2 N2            -0.4355     0.9453    -1.0810 N.am    
   3 C3             0.2426     0.0356    -2.0241 C.3     
   4 C4             1.5010     0.7327    -2.4795 C.2     
   5 N5             1.7811     2.0366    -2.2298 N.pl3   
   6 C6             0.9175     2.9490    -1.4767 C.3     
   7 C7             2.5398     0.2218    -3.1883 C.2     
   8 N8             3.4388     1.2153    -3.3705 N.2     
   9 C9             2.9888     2.3088    -2.7991 C.2     
  10 C10            3.6781     3.6178    -2.7773 C.ar    
  11 C11            4.7432     3.8631    -3.6443 C.ar    
  12 C12            5.3816     5.0860    -3.6194 C.ar    
  13 C13            4.9677     6.0678    -2.7368 C.ar    
  14 C14            3.9121     5.8307    -1.8746 C.ar    
  15 C15            3.2618     4.6140    -1.8937 C.ar    
  16 C16            2.6651    -1.1646    -3.6717 C.2     
  17 O17            1.7835    -1.9706    -3.4425 O.2     
  18 N18            3.7566    -1.5395    -4.3678 N.am    
  19 C19            3.8811    -2.9179    -4.8484 C.3     
  20 C20            4.7911    -2.9509    -6.0491 C.2     
  21 N21            4.6487    -3.9187    -6.9762 N.am    
  22 O22            5.6517    -2.1065    -6.1812 O.2     
  23 C23            5.4585    -3.8888    -8.1967 C.3     
  24 C24            4.4680    -3.7936    -3.7395 C.3     
  25 C25            3.4860    -3.8593    -2.5680 C.3     
  26 C26            4.7130    -5.2040    -4.2793 C.3     
  27 C27            5.7918    -3.1931    -3.2622 C.3     
  28 O28           -1.5910     1.3299     0.9092 O.3     
  29 C29           -2.1513     0.7607     2.1217 C.3     
  30 C30           -1.0378     0.1003     2.9371 C.3     
  31 C31           -2.8026     1.8688     2.9517 C.3     
  32 C32           -3.2042    -0.2869     1.7542 C.3     
  33 C33           -0.9772     0.4817     0.0627 C.2     
  34 O34           -0.9116    -0.7019     0.3299 O.2     
  35 H35           -0.9772     2.4905    -2.4003 H       
  36 H36           -1.0832     2.9035    -0.6715 H       
  37 H37            0.4954    -0.8988    -1.5230 H       
  38 H38           -0.4033    -0.1626    -2.8794 H       
  39 H39            0.8988     3.9217    -1.9684 H       
  40 H40            1.3016     3.0601    -0.4627 H       
  41 H41            5.0677     3.0972    -4.3332 H       
  42 H42            6.2063     5.2772    -4.2900 H       
  43 H43            5.4711     7.0232    -2.7207 H       
  44 H44            3.5939     6.6010    -1.1877 H       
  45 H45            2.4376     4.4302    -1.2204 H       
  46 H46            4.4596    -0.8968    -4.5506 H       
  47 H47            2.8975    -3.2956    -5.1275 H       
  48 H48            4.0100    -4.6350    -6.8354 H       
  49 H49            5.2568    -2.9680    -8.7441 H       
  50 H50            6.5152    -3.9305    -7.9327 H       
  51 H51            5.2059    -4.7456    -8.8214 H       
  52 H52            2.5429    -4.2871    -2.9081 H       
  53 H53            3.9041    -4.4831    -1.7780 H       
  54 H54            3.3114    -2.8544    -2.1834 H       
  55 H55            5.4867    -5.1702    -5.0463 H       
  56 H56            5.0361    -5.8534    -3.4657 H       
  57 H57            3.7907    -5.5933    -4.7106 H       
  58 H58            5.6172    -2.1882    -2.8776 H       
  59 H59            6.2099    -3.8169    -2.4722 H       
  60 H60            6.4914    -3.1462    -4.0967 H       
  61 H61           -0.2877     0.8466     3.1990 H       
  62 H62           -1.4585    -0.3270     3.8473 H       
  63 H63           -0.5739    -0.6892     2.3458 H       
  64 H64           -3.5959     2.3393     2.3708 H       
  65 H65           -3.2232     1.4415     3.8619 H       
  66 H66           -2.0525     2.6151     3.2136 H       
  67 H67           -2.7402    -1.0763     1.1629 H       
  68 H68           -3.6248    -0.7141     2.6644 H       
  69 H69           -3.9975     0.1836     1.1733 H       
@<TRIPOS>BOND
   1    1    2 1
   2    1    6 1
   3    1   35 1
   4    1   36 1
   5    2    3 1
   6    2   33 am
   7    3    4 1
   8    3   37 1
   9    3   38 1
  10    4    5 1
  11    4    7 2
  12    5    6 1
  13    5    9 1
  14    6   39 1
  15    6   40 1
  16    7    8 1
  17    7   16 1
  18    8    9 2
  19    9   10 1
  20   10   11 ar
  21   10   15 ar
  22   11   12 ar
  23   11   41 1
  24   12   13 ar
  25   12   42 1
  26   13   14 ar
  27   13   43 1
  28   14   15 ar
  29   14   44 1
  30   15   45 1
  31   16   17 2
  32   16   18 am
  33   18   19 1
  34   18   46 1
  35   19   20 1
  36   19   24 1
  37   19   47 1
  38   20   21 am
  39   20   22 2
  40   21   23 1
  41   21   48 1
  42   23   49 1
  43   23   50 1
  44   23   51 1
  45   24   25 1
  46   24   26 1
  47   24   27 1
  48   25   52 1
  49   25   53 1
  50   25   54 1
  51   26   55 1
  52   26   56 1
  53   26   57 1
  54   27   58 1
  55   27   59 1
  56   27   60 1
  57   28   29 1
  58   28   33 1
  59   29   30 1
  60   29   31 1
  61   29   32 1
  62   30   61 1
  63   30   62 1
  64   30   63 1
  65   31   64 1
  66   31   65 1
  67   31   66 1
  68   32   67 1
  69   32   68 1
  70   32   69 1
  71   33   34 2

#	End of record

