#	Name: ASD02198523
#	Creating user name:	WinNT
#	Creation time:	15. 06. 2019 20:19

#	Modifying user name:	WinNT
#	Modification time:	15. 06. 2019 20:19

#	Program:	/corina/corina34_cracker 3.40 0067  02.08.2006

@<TRIPOS>MOLECULE
ASD02198523
  51   54    0    0    0
SMALL
NO_CHARGES


@<TRIPOS>ATOM
   1 C1            -0.8742     1.9898    -0.1213 C.2     
   2 C2            -0.3697     0.8434    -0.6532 C.2     
   3 N3            -1.1901    -0.1682    -1.0210 N.pl3   
   4 N4            -2.4650    -0.1207    -0.8982 N.2     
   5 C5            -3.0829     0.9291    -0.3987 C.2     
   6 C6            -2.2818     2.0817     0.0371 C.2     
   7 C7            -0.6178    -1.3238    -1.5627 C.ar    
   8 C8            -0.8414    -3.5726    -2.3652 C.ar    
   9 C9             0.5144    -3.6097    -2.6346 C.ar    
  10 C10            1.3068    -2.5088    -2.3643 C.ar    
  11 C11            0.7451    -1.3665    -1.8294 C.ar    
  12 C12           -4.5547     0.9460    -0.2733 C.2     
  13 N13           -5.2697     1.1791     0.8676 N.pl3   
  14 N14           -6.6296     1.1027     0.5420 N.2     
  15 C15           -6.7424     0.8361    -0.7348 C.2     
  16 C16           -5.4648     0.7355    -1.2858 C.2     
  17 C17           -4.7379     1.4461     2.1356 C.ar    
  18 C18           -3.6450     0.7246     2.5977 C.ar    
  19 O19           -2.8062     3.0807     0.5076 O.2     
  20 C20           -5.2987     2.4367     2.9309 C.ar    
  21 C21           -4.7717     2.6979     4.1805 C.ar    
  22 C22           -3.6866     1.9741     4.6399 C.ar    
  23 C23           -3.1226     0.9906     3.8482 C.ar    
  24 C24           -1.4097    -2.4332    -1.8301 C.ar    
  25 O25           -0.0568     3.0110     0.2513 O.3     
  26 C26            1.3504     2.7908     0.1358 C.3     
  27 C27            2.0693     4.1364     0.0195 C.3     
  28 C28            1.8539     2.0490     1.3755 C.3     
  29 C29           -1.7009    -4.7744    -2.6619 C.3     
  30 F30           -0.9078    -5.7935    -3.2001 F       
  31 F31           -2.2985    -5.2237    -1.4794 F       
  32 F32           -2.6943    -4.4215    -3.5815 F       
  33 H33            0.6974     0.7398    -0.7837 H       
  34 H34            0.9555    -4.5004    -3.0572 H       
  35 H35            2.3655    -2.5412    -2.5756 H       
  36 H36            1.3644    -0.5071    -1.6189 H       
  37 H37           -7.6711     0.7181    -1.2734 H       
  38 H38           -5.2312     0.5234    -2.3186 H       
  39 H39           -3.2042    -0.0439     1.9800 H       
  40 H40           -6.1459     3.0025     2.5725 H       
  41 H41           -5.2072     3.4684     4.7993 H       
  42 H42           -3.2761     2.1805     5.6173 H       
  43 H43           -2.2754     0.4268     4.2100 H       
  44 H44           -2.4686    -2.4050    -1.6196 H       
  45 H45            1.5528     2.1927    -0.7527 H       
  46 H46            1.8668     4.7344     0.9080 H       
  47 H47            3.1426     3.9684    -0.0686 H       
  48 H48            1.7105     4.6649    -0.8637 H       
  49 H49            1.6515     2.6470     2.2640 H       
  50 H50            1.3418     1.0903     1.4584 H       
  51 H51            2.9273     1.8810     1.2874 H       
@<TRIPOS>BOND
   1    1    2 2
   2    1   25 1
   3    1    6 1
   4    2    3 1
   5    2   33 1
   6    3    4 1
   7    3    7 1
   8    4    5 2
   9    5    6 1
  10    5   12 1
  11    6   19 2
  12    7   24 ar
  13    7   11 ar
  14    8    9 ar
  15    8   29 1
  16    8   24 ar
  17    9   10 ar
  18    9   34 1
  19   10   11 ar
  20   10   35 1
  21   11   36 1
  22   12   13 1
  23   12   16 2
  24   13   14 1
  25   13   17 1
  26   14   15 2
  27   15   16 1
  28   15   37 1
  29   16   38 1
  30   17   20 ar
  31   17   18 ar
  32   18   23 ar
  33   18   39 1
  34   20   21 ar
  35   20   40 1
  36   21   22 ar
  37   21   41 1
  38   22   23 ar
  39   22   42 1
  40   23   43 1
  41   24   44 1
  42   25   26 1
  43   26   27 1
  44   26   28 1
  45   26   45 1
  46   27   46 1
  47   27   47 1
  48   27   48 1
  49   28   49 1
  50   28   50 1
  51   28   51 1
  52   29   30 1
  53   29   31 1
  54   29   32 1

#	End of record

