#	Name: ASD08150609
#	Creating user name:	WinNT
#	Creation time:	15. 06. 2019 21:16

#	Modifying user name:	WinNT
#	Modification time:	15. 06. 2019 21:16

#	Program:	/corina/corina34_cracker 3.40 0067  02.08.2006

@<TRIPOS>MOLECULE
ASD08150609
  65   70    0    0    0
SMALL
NO_CHARGES


@<TRIPOS>ATOM
   1 N1             0.0284     1.1773    -0.1008 N.am    
   2 C2             0.6143     0.4317     0.8561 C.2     
   3 C3             1.9582     0.0239     0.7345 C.2     
   4 C4             2.6842     0.3801    -0.3557 C.2     
   5 C5             2.0712     1.1646    -1.3647 C.ar    
   6 C6             2.7790     1.5608    -2.5155 C.ar    
   7 N7             2.2111     2.2844    -3.4447 N.ar    
   8 C8             0.9347     2.6884    -3.3597 C.ar    
   9 C9             0.1463     2.3356    -2.2364 C.ar    
  10 C10            0.7315     1.5535    -1.2130 C.ar    
  11 C11           -1.1825     2.7621    -2.1564 C.ar    
  12 C12           -1.7166     3.5292    -3.1822 C.ar    
  13 C13           -0.9284     3.8741    -4.2916 C.ar    
  14 C14            0.3649     3.4656    -4.3821 C.ar    
  15 O15           -0.0264     0.1056     1.8408 O.2     
  16 C16           -3.1205     3.9843    -3.1068 C.2     
  17 C17           -1.3076     1.5643     0.0404 C.ar    
  18 C18           -1.6159     2.8450     0.4855 C.ar    
  19 C19           -2.9319     3.2289     0.6251 C.ar    
  20 C20           -3.9553     2.3315     0.3195 C.ar    
  21 C21           -3.6435     1.0474    -0.1267 C.ar    
  22 C22           -2.3255     0.6700    -0.2698 C.ar    
  23 C23           -5.3715     2.7417     0.4693 C.ar    
  24 C24           -6.2380     2.6679    -0.6222 C.ar    
  25 C25           -7.5535     3.0482    -0.4840 C.ar    
  26 C26           -3.7859     4.6229    -4.0903 C.2     
  27 C27           -5.8391     3.1960     1.7031 C.ar    
  28 C28           -7.1543     3.5767     1.8433 C.ar    
  29 C29           -8.0214     3.5082     0.7497 C.ar    
  30 C30           -9.4327     3.9170     0.8989 C.2     
  31 N31          -10.2686     3.8508    -0.1563 N.am    
  32 O32           -9.8404     4.3133     1.9735 O.2     
  33 C33          -11.6686     4.2563    -0.0082 C.3     
  34 C34          -12.3932     4.0851    -1.3448 C.3     
  35 C35           -5.0914     4.9488    -3.7857 C.2     
  36 C36           -5.4964     4.5830    -2.5660 C.2     
  37 S37           -4.1847     3.7700    -1.7228 S.3     
  38 N38          -13.7970     4.4917    -1.1964 N.3     
  39 C39           -4.7465     0.0753    -0.4573 C.3     
  40 F40           -4.2055    -1.2037    -0.6273 F       
  41 F41           -5.6769     0.0529     0.5872 F       
  42 F42           -5.3810     0.4740    -1.6386 F       
  43 H43            2.4118    -0.5736     1.5114 H       
  44 H44            3.7143     0.0706    -0.4528 H       
  45 H45            3.8102     1.2617    -2.6328 H       
  46 H46           -1.7889     2.4964    -1.3031 H       
  47 H47           -1.3552     4.4716    -5.0836 H       
  48 H48            0.9569     3.7401    -5.2427 H       
  49 H49           -0.8232     3.5393     0.7223 H       
  50 H50           -3.1708     4.2237     0.9712 H       
  51 H51           -2.0835    -0.3228    -0.6195 H       
  52 H52           -5.8760     2.3126    -1.5757 H       
  53 H53           -8.2238     2.9913    -1.3289 H       
  54 H54           -3.3326     4.8609    -5.0412 H       
  55 H55           -5.1689     3.2485     2.5483 H       
  56 H56           -7.5161     3.9280     2.7983 H       
  57 H57           -9.9433     3.5346    -1.0136 H       
  58 H58          -12.1489     3.6349     0.7476 H       
  59 H59          -11.7137     5.3013     0.2982 H       
  60 H60          -11.9129     4.7064    -2.1007 H       
  61 H61          -12.3481     3.0400    -1.6513 H       
  62 H62           -5.7383     5.4622    -4.4817 H       
  63 H63           -6.4823     4.7567    -2.1607 H       
  64 H64          -13.8650     5.4372    -0.8509 H       
  65 H65          -14.2975     4.3878    -2.0664 H       
@<TRIPOS>BOND
   1    1    2 am
   2    1   10 1
   3    1   17 1
   4    2    3 1
   5    2   15 2
   6    3    4 2
   7    3   43 1
   8    4    5 1
   9    4   44 1
  10    5    6 ar
  11    5   10 ar
  12    6    7 ar
  13    6   45 1
  14    7    8 ar
  15    8    9 ar
  16    8   14 ar
  17    9   10 ar
  18    9   11 ar
  19   11   12 ar
  20   11   46 1
  21   12   13 ar
  22   12   16 1
  23   13   14 ar
  24   13   47 1
  25   14   48 1
  26   16   26 2
  27   16   37 1
  28   17   18 ar
  29   17   22 ar
  30   18   19 ar
  31   18   49 1
  32   19   20 ar
  33   19   50 1
  34   20   21 ar
  35   20   23 1
  36   21   22 ar
  37   21   39 1
  38   22   51 1
  39   23   24 ar
  40   23   27 ar
  41   24   25 ar
  42   24   52 1
  43   25   29 ar
  44   25   53 1
  45   26   35 1
  46   26   54 1
  47   27   28 ar
  48   27   55 1
  49   28   29 ar
  50   28   56 1
  51   29   30 1
  52   30   31 am
  53   30   32 2
  54   31   33 1
  55   31   57 1
  56   33   34 1
  57   33   58 1
  58   33   59 1
  59   34   38 1
  60   34   60 1
  61   34   61 1
  62   35   36 2
  63   35   62 1
  64   36   37 1
  65   36   63 1
  66   38   64 1
  67   38   65 1
  68   39   40 1
  69   39   41 1
  70   39   42 1

#	End of record

