#	Name: ASD01940622
#	Creating user name:	WinNT
#	Creation time:	15. 06. 2019 20:12

#	Modifying user name:	WinNT
#	Modification time:	15. 06. 2019 20:12

#	Program:	/corina/corina34_cracker 3.40 0067  02.08.2006

@<TRIPOS>MOLECULE
ASD01940622
  49   51    0    0    0
SMALL
NO_CHARGES


@<TRIPOS>ATOM
   1 C1             0.9524     0.8454     0.4579 C.ar    
   2 C2             0.2932    -0.3931     0.4909 C.ar    
   3 C3             1.0250    -1.5580     0.6462 C.ar    
   4 C4             2.4043    -1.5052     0.7691 C.ar    
   5 C5             3.0658    -0.2893     0.7381 C.ar    
   6 C6             2.3518     0.8894     0.5833 C.ar    
   7 N7             3.0168     2.1088     0.5519 N.pl3   
   8 C8             4.2831     2.2301     1.1341 C.ar    
   9 C9             4.6831     1.3399     2.1211 C.ar    
  10 C10            5.9344     1.4620     2.6946 C.ar    
  11 C11            6.7890     2.4698     2.2867 C.ar    
  12 C12            6.3948     3.3597     1.3030 C.ar    
  13 C13            5.1466     3.2398     0.7211 C.ar    
  14 F14            4.7637     4.1051    -0.2432 F       
  15 I15            8.6845     2.6501     3.1604 I       
  16 F16            3.1084    -2.6482     0.9207 F       
  17 C17            0.1852     2.0879     0.2873 C.2     
  18 O18           -0.2329     2.6834     1.2623 O.2     
  19 N19           -0.0549     2.5672    -0.9493 N.am    
  20 O20           -1.0568    -0.4486     0.3713 O.3     
  21 C21           -1.5861    -0.4712    -0.8800 C.ar    
  22 C22           -0.7532    -0.5687    -1.9835 C.ar    
  23 C23           -1.2972    -0.5915    -3.2605 C.ar    
  24 C24           -2.6744    -0.5164    -3.4283 C.ar    
  25 C25           -3.5011    -0.4188    -2.3256 C.ar    
  26 C26           -2.9618    -0.4023    -1.0537 C.ar    
  27 N27           -0.4613    -0.6892    -4.3752 N.am    
  28 S28            0.2664    -2.1312    -4.7405 S.o2    
  29 N29           -0.9336    -3.1952    -5.1530 N.am    
  30 O30            1.0282    -1.9089    -5.9192 O.2     
  31 O31            0.8315    -2.6137    -3.5293 O.2     
  32 C32           -3.8677    -0.3030     0.1466 C.3     
  33 H33            0.5188    -2.5117     0.6721 H       
  34 H34            4.1410    -0.2587     0.8347 H       
  35 H35            2.6032     2.8760     0.1262 H       
  36 H36            4.0166     0.5525     2.4410 H       
  37 H37            6.2453     0.7695     3.4628 H       
  38 H38            7.0644     4.1460     0.9869 H       
  39 H39            0.2785     2.0924    -1.7267 H       
  40 H40           -0.5611     3.3870    -1.0618 H       
  41 H41            0.3170    -0.6266    -1.8502 H       
  42 H42           -3.0988    -0.5340    -4.4212 H       
  43 H43           -4.5714    -0.3598    -2.4580 H       
  44 H44           -0.3070     0.0876    -4.9353 H       
  45 H45           -1.8521    -2.8897    -5.2160 H       
  46 H46           -0.7181    -4.1239    -5.3317 H       
  47 H47           -4.0294     0.7462     0.3939 H       
  48 H48           -4.8240    -0.7744    -0.0800 H       
  49 H49           -3.4049    -0.8088     0.9939 H       
@<TRIPOS>BOND
   1    1    2 ar
   2    1    6 ar
   3    1   17 1
   4    2    3 ar
   5    2   20 1
   6    3    4 ar
   7    3   33 1
   8    4    5 ar
   9    4   16 1
  10    5    6 ar
  11    5   34 1
  12    6    7 1
  13    7    8 1
  14    7   35 1
  15    8    9 ar
  16    8   13 ar
  17    9   10 ar
  18    9   36 1
  19   10   11 ar
  20   10   37 1
  21   11   12 ar
  22   11   15 1
  23   12   13 ar
  24   12   38 1
  25   13   14 1
  26   17   18 2
  27   17   19 am
  28   19   39 1
  29   19   40 1
  30   20   21 1
  31   21   22 ar
  32   21   26 ar
  33   22   23 ar
  34   22   41 1
  35   23   27 1
  36   23   24 ar
  37   24   25 ar
  38   24   42 1
  39   25   26 ar
  40   25   43 1
  41   26   32 1
  42   27   28 am
  43   27   44 1
  44   28   29 am
  45   28   30 2
  46   28   31 2
  47   29   45 1
  48   29   46 1
  49   32   47 1
  50   32   48 1
  51   32   49 1

#	End of record

