#	Name: ASD00170422
#	Creating user name:	WinNT
#	Creation time:	15. 06. 2019 18:32

#	Modifying user name:	WinNT
#	Modification time:	15. 06. 2019 18:32

#	Program:	/corina/corina34_cracker 3.40 0067  02.08.2006

@<TRIPOS>MOLECULE
ASD00170422
  46   47    0    0    0
SMALL
NO_CHARGES


@<TRIPOS>ATOM
   1 C1             1.5021     0.5809     0.9645 C.2     
   2 C2             1.0477    -0.6986     0.7438 C.2     
   3 C3            -0.3557    -0.7394     0.3903 C.2     
   4 C4            -0.9185     0.4582     0.3505 C.2     
   5 S5             0.2430     1.7100     0.7528 S.3     
   6 C6            -1.1005    -2.0162     0.0969 C.3     
   7 N7             2.7971     0.9050     1.3147 N.pl3   
   8 C8             1.8909    -1.8888     0.8543 C.2     
   9 C9             2.5416    -2.4482    -0.3500 C.ar    
  10 O10            2.0569    -2.4189     1.9379 O.2     
  11 C11            3.2562    -3.6448    -0.2685 C.ar    
  12 C12            3.8605    -4.1619    -1.3950 C.ar    
  13 C13            3.7596    -3.4965    -2.6057 C.ar    
  14 C14            3.0524    -2.3087    -2.6926 C.ar    
  15 C15            2.4390    -1.7849    -1.5742 C.ar    
  16 Cl16           4.5231    -4.1536    -4.0196 Cl      
  17 N17           -1.3070    -2.7608     1.3463 N.3     
  18 C18           -2.3809    -2.1581     2.1471 C.3     
  19 C19           -1.5844    -4.1777     1.0750 C.3     
  20 C20           -1.5234    -4.9688     2.3831 C.3     
  21 C21           -1.8061    -1.0269     3.0021 C.3     
  22 C22           -2.9785    -4.3157     0.4600 C.3     
  23 C23           -3.4578    -1.5970     1.2162 C.3     
  24 H24           -1.9548     0.6400     0.1067 H       
  25 H25           -2.0667    -1.7791    -0.3486 H       
  26 H26           -0.5200    -2.6243    -0.5968 H       
  27 H27            3.4417     0.2024     1.4928 H       
  28 H28            3.0627     1.8355     1.3828 H       
  29 H29            3.3358    -4.1643     0.6750 H       
  30 H30            4.4138    -5.0873    -1.3332 H       
  31 H31            2.9777    -1.7940    -3.6391 H       
  32 H32            1.8879    -0.8587    -1.6431 H       
  33 H33           -2.8201    -2.9163     2.7954 H       
  34 H34           -0.8404    -4.5669     0.3799 H       
  35 H35           -2.3487    -4.6680     3.0285 H       
  36 H36           -1.6008    -6.0344     2.1672 H       
  37 H37           -0.5773    -4.7677     2.8857 H       
  38 H38           -1.4638    -0.2198     2.3544 H       
  39 H39           -2.5778    -0.6511     3.6739 H       
  40 H40           -0.9672    -1.4040     3.5871 H       
  41 H41           -3.7224    -3.9264     1.1550 H       
  42 H42           -3.0219    -3.7521    -0.4720 H       
  43 H43           -3.1843    -5.3670     0.2587 H       
  44 H44           -3.7530    -2.3629     0.4990 H       
  45 H45           -4.3251    -1.2959     1.8038 H       
  46 H46           -3.0625    -0.7326     0.6827 H       
@<TRIPOS>BOND
   1    1    2 2
   2    1    7 1
   3    1    5 1
   4    2    3 1
   5    2    8 1
   6    3    4 2
   7    3    6 1
   8    4    5 1
   9    4   24 1
  10    6   17 1
  11    6   25 1
  12    6   26 1
  13    7   27 1
  14    7   28 1
  15    8    9 1
  16    8   10 2
  17    9   11 ar
  18    9   15 ar
  19   11   12 ar
  20   11   29 1
  21   12   13 ar
  22   12   30 1
  23   13   14 ar
  24   13   16 1
  25   14   15 ar
  26   14   31 1
  27   15   32 1
  28   17   18 1
  29   17   19 1
  30   18   21 1
  31   18   23 1
  32   18   33 1
  33   19   20 1
  34   19   22 1
  35   19   34 1
  36   20   35 1
  37   20   36 1
  38   20   37 1
  39   21   38 1
  40   21   39 1
  41   21   40 1
  42   22   41 1
  43   22   42 1
  44   22   43 1
  45   23   44 1
  46   23   45 1
  47   23   46 1

#	End of record

