#	Name: ASD03730375
#	Creating user name:	WinNT
#	Creation time:	15. 06. 2019 20:44

#	Modifying user name:	WinNT
#	Modification time:	15. 06. 2019 20:44

#	Program:	/corina/corina34_cracker 3.40 0067  02.08.2006

@<TRIPOS>MOLECULE
ASD03730375
  67   72    0    0    0
SMALL
NO_CHARGES


@<TRIPOS>ATOM
   1 C1            -0.3886     1.2529     0.6793 C.2     
   2 C2            -0.5540    -0.2130     0.7772 C.ar    
   3 C3             0.5567    -1.0311     0.9908 C.ar    
   4 C4             0.3954    -2.3980     1.0816 C.ar    
   5 C5            -0.8640    -2.9587     0.9610 C.ar    
   6 C6            -1.9689    -2.1536     0.7493 C.ar    
   7 C7            -1.8221    -0.7844     0.6623 C.ar    
   8 O8             0.7164     1.7482     0.7848 O.2     
   9 N9            -1.4623     2.0396     0.4675 N.am    
  10 C10            1.5934    -3.2828     1.3121 C.3     
  11 O11           -2.7242    -2.8489     7.0446 O.3     
  12 C12           -2.9935    -2.9727     8.4535 C.3     
  13 O13           -2.2681    -4.1554     8.8381 O.3     
  14 C14           -1.2317    -4.2524     7.9542 C.ar    
  15 C15           -1.5132    -3.4496     6.8511 C.ar    
  16 C16           -0.0510    -4.9716     8.0029 C.ar    
  17 C17            0.8611    -4.9015     6.9542 C.ar    
  18 C18            0.5649    -4.1026     5.8540 C.ar    
  19 C19           -0.6085    -3.3794     5.8052 C.ar    
  20 O20            2.0745    -5.5079     6.8121 O.3     
  21 C21            1.7124    -4.2554     4.8917 C.3     
  22 C22            2.4553    -5.4889     5.4228 C.3     
  23 N23            1.8016    -3.4576     2.7517 N.am    
  24 C24            1.2462    -4.4484     3.4775 C.2     
  25 C25            2.5944    -3.0426     4.8578 C.ar    
  26 C26            3.3147    -2.3630     5.8146 C.ar    
  27 C27            4.0535    -1.2473     5.4632 C.ar    
  28 C28            4.0663    -0.8161     4.1491 C.ar    
  29 C29            3.3457    -1.4929     3.1873 C.ar    
  30 C30            2.5994    -2.6172     3.5319 C.ar    
  31 O31            0.5138    -5.3244     3.0683 O.2     
  32 C32           -1.2984     3.4921     0.3706 C.3     
  33 C33           -2.6614     4.1443     0.1302 C.3     
  34 C34           -3.5570     3.9185     1.3500 C.3     
  35 C35           -4.9644     4.4397     1.0528 C.3     
  36 C36           -2.4756     5.6461    -0.0952 C.3     
  37 C37           -1.6990     5.8748    -1.3934 C.3     
  38 H38            1.5402    -0.5948     1.0843 H       
  39 H39           -0.9848    -4.0295     1.0322 H       
  40 H40           -2.9490    -2.5975     0.6561 H       
  41 H41           -2.6860    -0.1566     0.5010 H       
  42 H42           -2.3436     1.6440     0.3793 H       
  43 H43            1.4218    -4.2546     0.8492 H       
  44 H44            2.4765    -2.8209     0.8707 H       
  45 H45           -2.6201    -2.1021     8.9927 H       
  46 H46           -4.0612    -3.1042     8.6293 H       
  47 H47            0.1643    -5.5918     8.8605 H       
  48 H48           -0.8225    -2.7571     4.9488 H       
  49 H49            3.5333    -5.3662     5.3186 H       
  50 H50            2.1166    -6.3926     4.9161 H       
  51 H51            3.3031    -2.7013     6.8401 H       
  52 H52            4.6193    -0.7145     6.2132 H       
  53 H53            4.6429     0.0549     3.8749 H       
  54 H54            3.3601    -1.1498     2.1634 H       
  55 H55           -0.8723     3.8725     1.2989 H       
  56 H56           -0.6315     3.7279    -0.4587 H       
  57 H57           -3.1268     3.6997    -0.7495 H       
  58 H58           -3.6039     2.8528     1.5741 H       
  59 H59           -3.1453     4.4522     2.2067 H       
  60 H60           -4.9318     5.5217     0.9251 H       
  61 H61           -5.3377     3.9771     0.1391 H       
  62 H62           -5.6265     4.1915     1.8824 H       
  63 H63           -3.4515     6.1263    -0.1661 H       
  64 H64           -1.9205     6.0729     0.7402 H       
  65 H65           -0.7529     5.3351    -1.3508 H       
  66 H66           -2.2865     5.5121    -2.2369 H       
  67 H67           -1.5044     6.9401    -1.5176 H       
@<TRIPOS>BOND
   1    1    2 1
   2    1    8 2
   3    1    9 am
   4    2    3 ar
   5    2    7 ar
   6    3    4 ar
   7    3   38 1
   8    4    5 ar
   9    4   10 1
  10    5    6 ar
  11    5   39 1
  12    6    7 ar
  13    6   40 1
  14    7   41 1
  15    9   32 1
  16    9   42 1
  17   10   23 1
  18   10   43 1
  19   10   44 1
  20   11   12 1
  21   11   15 1
  22   12   13 1
  23   12   45 1
  24   12   46 1
  25   13   14 1
  26   14   15 ar
  27   14   16 ar
  28   15   19 ar
  29   16   17 ar
  30   16   47 1
  31   17   18 ar
  32   17   20 1
  33   18   19 ar
  34   18   21 1
  35   19   48 1
  36   20   22 1
  37   21   22 1
  38   21   24 1
  39   21   25 1
  40   22   49 1
  41   22   50 1
  42   23   24 am
  43   23   30 1
  44   24   31 2
  45   25   26 ar
  46   25   30 ar
  47   26   27 ar
  48   26   51 1
  49   27   28 ar
  50   27   52 1
  51   28   29 ar
  52   28   53 1
  53   29   30 ar
  54   29   54 1
  55   32   33 1
  56   32   55 1
  57   32   56 1
  58   33   34 1
  59   33   36 1
  60   33   57 1
  61   34   35 1
  62   34   58 1
  63   34   59 1
  64   35   60 1
  65   35   61 1
  66   35   62 1
  67   36   37 1
  68   36   63 1
  69   36   64 1
  70   37   65 1
  71   37   66 1
  72   37   67 1

#	End of record

