#	Name: ASD03240200
#	Creating user name:	WinNT
#	Creation time:	15. 06. 2019 20:34

#	Modifying user name:	WinNT
#	Modification time:	15. 06. 2019 20:34

#	Program:	/corina/corina34_cracker 3.40 0067  02.08.2006

@<TRIPOS>MOLECULE
ASD03240200
  54   58    0    0    0
SMALL
NO_CHARGES


@<TRIPOS>ATOM
   1 C1             0.0910     1.1862     0.1527 C.ar    
   2 C2             0.0712    -0.2004     0.1114 C.ar    
   3 C3            -1.1342    -0.8737     0.0937 C.ar    
   4 C4            -2.3265    -0.1628     0.1174 C.ar    
   5 C5            -2.3061     1.2248     0.1588 C.ar    
   6 C6            -1.1001     1.8968     0.1822 C.ar    
   7 N7            -3.5511    -0.8461     0.0991 N.pl3   
   8 C8            -3.8843    -1.8322    -0.7906 C.2     
   9 C9            -5.1379    -2.2781    -0.5281 C.2     
  10 C10           -5.6251    -1.5044     0.6212 C.ar    
  11 C11           -4.5843    -0.6270     0.9730 C.ar    
  12 C12           -6.8110    -1.4762     1.3666 C.ar    
  13 N13           -6.9027    -0.6135     2.3753 N.ar    
  14 C14           -5.9028     0.1974     2.6695 C.ar    
  15 N15           -4.7698     0.2002     2.0005 N.ar    
  16 N16           -7.8616    -2.3245     1.0608 N.pl3   
  17 C17           -8.9882    -2.3676     1.8869 C.ar    
  18 C18           -5.8727    -3.3380    -1.2587 C.ar    
  19 C19           -5.9582    -3.2986    -2.6498 C.ar    
  20 C20           -6.4762    -4.3814    -0.5578 C.ar    
  21 C21           -7.1585    -5.3655    -1.2434 C.ar    
  22 C22           -7.2445    -5.3184    -2.6233 C.ar    
  23 C23           -6.6433    -4.2884    -3.3244 C.ar    
  24 C24           -8.8569    -2.1585     3.2527 C.ar    
  25 C25           -9.9766    -2.2021     4.0687 C.ar    
  26 C26          -11.2255    -2.4546     3.5188 C.ar    
  27 C27          -11.3545    -2.6627     2.1585 C.ar    
  28 C28          -10.2422    -2.6144     1.3412 C.ar    
  29 O29            1.2781     1.8486     0.1701 O.3     
  30 C30            1.2240     3.2760     0.2128 C.3     
  31 O31           -9.8513    -1.9982     5.4064 O.3     
  32 C32          -11.0472    -2.0575     6.1865 C.3     
  33 H33            0.9988    -0.7532     0.0926 H       
  34 H34           -1.1494    -1.9531     0.0612 H       
  35 H35           -3.2333     1.7783     0.1768 H       
  36 H36           -1.0841     2.9762     0.2147 H       
  37 H37           -3.2460    -2.1989    -1.5809 H       
  38 H38           -6.0180     0.8829     3.4960 H       
  39 H39           -7.8158    -2.8889     0.2733 H       
  40 H40           -5.4896    -2.4949    -3.1981 H       
  41 H41           -6.4094    -4.4194     0.5194 H       
  42 H42           -7.6261    -6.1744    -0.7017 H       
  43 H43           -7.7796    -6.0908    -3.1556 H       
  44 H44           -6.7137    -4.2568    -4.4017 H       
  45 H45           -7.8841    -1.9625     3.6790 H       
  46 H46          -12.0977    -2.4889     4.1548 H       
  47 H47          -12.3276    -2.8593     1.7333 H       
  48 H48          -10.3458    -2.7773     0.2786 H       
  49 H49            0.6950     3.6460    -0.6655 H       
  50 H50            0.6986     3.5928     1.1137 H       
  51 H51            2.2372     3.6778     0.2227 H       
  52 H52          -11.7461    -1.2969     5.8385 H       
  53 H53          -11.5008    -3.0431     6.0817 H       
  54 H54          -10.8067    -1.8778     7.2343 H       
@<TRIPOS>BOND
   1    1    2 ar
   2    1   29 1
   3    1    6 ar
   4    2    3 ar
   5    2   33 1
   6    3    4 ar
   7    3   34 1
   8    4    5 ar
   9    4    7 1
  10    5    6 ar
  11    5   35 1
  12    6   36 1
  13    7    8 1
  14    7   11 1
  15    8    9 2
  16    8   37 1
  17    9   10 1
  18    9   18 1
  19   10   11 ar
  20   10   12 ar
  21   11   15 ar
  22   12   13 ar
  23   12   16 1
  24   13   14 ar
  25   14   15 ar
  26   14   38 1
  27   16   17 1
  28   16   39 1
  29   17   24 ar
  30   17   28 ar
  31   18   19 ar
  32   18   20 ar
  33   19   23 ar
  34   19   40 1
  35   20   21 ar
  36   20   41 1
  37   21   22 ar
  38   21   42 1
  39   22   23 ar
  40   22   43 1
  41   23   44 1
  42   24   25 ar
  43   24   45 1
  44   25   26 ar
  45   25   31 1
  46   26   27 ar
  47   26   46 1
  48   27   28 ar
  49   27   47 1
  50   28   48 1
  51   29   30 1
  52   30   49 1
  53   30   50 1
  54   30   51 1
  55   31   32 1
  56   32   52 1
  57   32   53 1
  58   32   54 1

#	End of record

