#	Name: ASD03910036
#	Creating user name:	WinNT
#	Creation time:	15. 06. 2019 20:47

#	Modifying user name:	WinNT
#	Modification time:	15. 06. 2019 20:47

#	Program:	/corina/corina34_cracker 3.40 0067  02.08.2006

@<TRIPOS>MOLECULE
ASD03910036
  64   65    0    0    0
SMALL
NO_CHARGES


@<TRIPOS>ATOM
   1 C1            -0.5609    -0.4453     0.4684 C.ar    
   2 C2             0.3589     0.1137     1.3365 C.ar    
   3 C3             0.0608     1.2887     2.0018 C.ar    
   4 C4            -1.1575     1.9076     1.8013 C.ar    
   5 C5            -2.0834     1.3488     0.9301 C.ar    
   6 C6            -1.7785     0.1719     0.2588 C.ar    
   7 N7            -3.3186     1.9732     0.7248 N.am    
   8 C8            -3.4020     3.3184     0.7252 C.2     
   9 O9            -2.4263     3.9864     0.9951 O.2     
  10 C10           -4.5336     5.4878     0.4616 C.ar    
  11 C11           -4.1469     6.1920    -0.6637 C.ar    
  12 C12           -3.9923     7.5634    -0.6025 C.ar    
  13 C13           -4.2253     8.2340     0.5894 C.ar    
  14 C14           -4.6132     7.5251     1.7171 C.ar    
  15 C15           -4.7664     6.1538     1.6507 C.ar    
  16 O16           -4.0734     9.5830     0.6523 O.3     
  17 C17           -4.2057    10.1915     1.9385 C.3     
  18 C18           -5.5827     9.9162     2.4853 C.2     
  19 C19           -0.2319    -1.7260    -0.2546 C.3     
  20 C20            1.0662     1.8944     2.9470 C.3     
  21 O21           -6.3731     9.2632     1.8373 O.2     
  22 N22           -5.9360    10.3956     3.6943 N.am    
  23 C23           -4.7076     3.9925     0.3904 C.3     
  24 C24           -3.1549     9.6116     2.8875 C.3     
  25 C25           -3.9999    11.7023     1.8116 C.3     
  26 C26           -7.2747    10.1280     4.2258 C.3     
  27 C27           -8.2403    11.1567     3.6962 C.2     
  28 O28           -7.8503    12.0243     2.9513 O.2     
  29 O29           -9.5337    11.1091     4.0522 O.3     
  30 C30           -7.2404    10.1996     5.7538 C.3     
  31 C31           -8.6385     9.9201     6.3089 C.3     
  32 C32           -6.2601     9.1553     6.2914 C.3     
  33 H33            1.3121    -0.3687     1.4955 H       
  34 H34           -1.3900     2.8249     2.3217 H       
  35 H35           -2.4964    -0.2650    -0.4196 H       
  36 H36           -4.1149     1.4380     0.5821 H       
  37 H37           -3.9653     5.6694    -1.5913 H       
  38 H38           -3.6899     8.1129    -1.4817 H       
  39 H39           -4.7949     8.0449     2.6462 H       
  40 H40           -5.0684     5.6015     2.5283 H       
  41 H41           -0.5554    -2.5759     0.3464 H       
  42 H42           -0.7465    -1.7434    -1.2153 H       
  43 H43            0.8442    -1.7850    -0.4177 H       
  44 H44            1.7115     2.5816     2.3996 H       
  45 H45            0.5434     2.4366     3.7349 H       
  46 H46            1.6710     1.1032     3.3900 H       
  47 H47           -5.3038    10.9179     4.2126 H       
  48 H48           -5.0146     3.7100    -0.6166 H       
  49 H49           -5.4707     3.6812     1.1037 H       
  50 H50           -2.1624     9.9308     2.5692 H       
  51 H51           -3.3438     9.9679     3.9001 H       
  52 H52           -3.2098     8.5232     2.8690 H       
  53 H53           -4.6983    12.1036     1.0772 H       
  54 H54           -4.1766    12.1754     2.7775 H       
  55 H55           -2.9783    11.9041     1.4896 H       
  56 H56           -7.5967     9.1339     3.9158 H       
  57 H57          -10.1148    11.7902     3.6870 H       
  58 H58           -6.9185    11.1938     6.0638 H       
  59 H59           -8.9605     8.9260     5.9989 H       
  60 H60           -8.6142     9.9712     7.3974 H       
  61 H61           -9.3370    10.6642     5.9258 H       
  62 H62           -6.2357     9.2063     7.3800 H       
  63 H63           -6.5821     8.1611     5.9814 H       
  64 H64           -5.2641     9.3544     5.8960 H       
@<TRIPOS>BOND
   1    1    2 ar
   2    1   19 1
   3    1    6 ar
   4    2    3 ar
   5    2   33 1
   6    3    4 ar
   7    3   20 1
   8    4    5 ar
   9    4   34 1
  10    5    6 ar
  11    5    7 1
  12    6   35 1
  13    7    8 am
  14    7   36 1
  15    8    9 2
  16    8   23 1
  17   10   11 ar
  18   10   15 ar
  19   10   23 1
  20   11   12 ar
  21   11   37 1
  22   12   13 ar
  23   12   38 1
  24   13   14 ar
  25   13   16 1
  26   14   15 ar
  27   14   39 1
  28   15   40 1
  29   16   17 1
  30   17   18 1
  31   17   24 1
  32   17   25 1
  33   18   21 2
  34   18   22 am
  35   19   41 1
  36   19   42 1
  37   19   43 1
  38   20   44 1
  39   20   45 1
  40   20   46 1
  41   22   26 1
  42   22   47 1
  43   23   48 1
  44   23   49 1
  45   24   50 1
  46   24   51 1
  47   24   52 1
  48   25   53 1
  49   25   54 1
  50   25   55 1
  51   26   27 1
  52   26   30 1
  53   26   56 1
  54   27   28 2
  55   27   29 1
  56   29   57 1
  57   30   31 1
  58   30   32 1
  59   30   58 1
  60   31   59 1
  61   31   60 1
  62   31   61 1
  63   32   62 1
  64   32   63 1
  65   32   64 1

#	End of record

