#	Name: ASD05060117
#	Creating user name:	WinNT
#	Creation time:	15. 06. 2019 20:56

#	Modifying user name:	WinNT
#	Modification time:	15. 06. 2019 20:56

#	Program:	/corina/corina34_cracker 3.40 0067  02.08.2006

@<TRIPOS>MOLECULE
ASD05060117
  62   64    0    0    0
SMALL
NO_CHARGES


@<TRIPOS>ATOM
   1 C1             2.7417    -1.4025     2.3053 C.3     
   2 N2             2.2529    -0.1885     1.6471 N.am    
   3 C3             2.3297    -2.6277     1.4867 C.3     
   4 C4             4.2673    -1.3477     2.4085 C.3     
   5 C5             2.1388    -1.5002     3.7081 C.3     
   6 C6            -0.2615    -0.0215     2.7537 C.ar    
   7 C7            -1.0732    -1.0854     3.0909 C.ar    
   8 C8            -1.7908    -1.0636     4.2734 C.ar    
   9 C9            -1.6997     0.0234     5.1235 C.ar    
  10 C10           -0.8912     1.0932     4.7959 C.ar    
  11 C11           -0.1611     1.0736     3.6095 C.ar    
  12 C12            0.7101     2.2206     3.2522 C.ar    
  13 C13            0.1653     3.4926     3.1146 C.ar    
  14 C14            0.9899     4.5653     2.7787 C.ar    
  15 C15            2.3565     4.3560     2.5828 C.ar    
  16 C16            2.8898     3.0902     2.7213 C.ar    
  17 C17            2.0775     2.0255     3.0596 C.ar    
  18 C18            0.4190     5.9208     2.6298 C.2     
  19 N19            1.2178     6.9566     2.3050 N.am    
  20 O20           -0.7710     6.1012     2.8003 O.2     
  21 C21            0.6982     8.2543     2.2638 C.ar    
  22 C22           -0.3147     8.6265     3.1382 C.ar    
  23 C23           -0.8257     9.9088     3.0948 C.ar    
  24 C24           -0.3300    10.8218     2.1821 C.ar    
  25 C25            0.6781    10.4543     1.3098 C.ar    
  26 C26            1.1978     9.1754     1.3521 C.ar    
  27 C27           -0.8900    12.2202     2.1376 C.3     
  28 C28           -0.0925    13.1193     3.0845 C.3     
  29 C29           -0.6525    14.5176     3.0401 C.2     
  30 O30           -0.1065    15.4836     3.7955 O.3     
  31 O31           -1.5929    14.7693     2.3244 O.2     
  32 S32            0.6518    -0.0509     1.2471 S.o2    
  33 O33            0.4944     1.2323     0.6574 O.2     
  34 O34            0.2980    -1.2584     0.5869 O.2     
  35 H35            2.8670     0.5348     1.4456 H       
  36 H36            2.6079    -2.4779     0.4435 H       
  37 H37            2.8366    -3.5112     1.8746 H       
  38 H38            1.2510    -2.7667     1.5587 H       
  39 H39            4.5608    -0.4749     2.9917 H       
  40 H40            4.6310    -2.2510     2.8982 H       
  41 H41            4.6968    -1.2781     1.4091 H       
  42 H42            1.0523    -1.5466     3.6342 H       
  43 H43            2.5082    -2.3998     4.2005 H       
  44 H44            2.4264    -0.6239     4.2890 H       
  45 H45           -1.1485    -1.9364     2.4302 H       
  46 H46           -2.4248    -1.8983     4.5334 H       
  47 H47           -2.2624     0.0354     6.0453 H       
  48 H48           -0.8213     1.9419     5.4602 H       
  49 H49           -0.8925     3.6488     3.2669 H       
  50 H50            2.9972     5.1855     2.3221 H       
  51 H51            3.9473     2.9325     2.5689 H       
  52 H52            2.5009     1.0378     3.1667 H       
  53 H53            2.1532     6.8019     2.0999 H       
  54 H54           -0.7025     7.9138     3.8510 H       
  55 H55           -1.6135    10.1988     3.7743 H       
  56 H56            1.0628    11.1695     0.5979 H       
  57 H57            1.9851     8.8889     0.6706 H       
  58 H58           -0.8181    12.6082     1.1216 H       
  59 H59           -1.9350    12.2031     2.4469 H       
  60 H60           -0.1644    12.7312     4.1006 H       
  61 H61            0.9526    13.1364     2.7753 H       
  62 H62           -0.5000    16.3647     3.7332 H       
@<TRIPOS>BOND
   1    1    2 1
   2    1    3 1
   3    1    4 1
   4    1    5 1
   5    2   32 am
   6    2   35 1
   7    3   36 1
   8    3   37 1
   9    3   38 1
  10    4   39 1
  11    4   40 1
  12    4   41 1
  13    5   42 1
  14    5   43 1
  15    5   44 1
  16    6   32 1
  17    6    7 ar
  18    6   11 ar
  19    7    8 ar
  20    7   45 1
  21    8    9 ar
  22    8   46 1
  23    9   10 ar
  24    9   47 1
  25   10   11 ar
  26   10   48 1
  27   11   12 1
  28   12   13 ar
  29   12   17 ar
  30   13   14 ar
  31   13   49 1
  32   14   15 ar
  33   14   18 1
  34   15   16 ar
  35   15   50 1
  36   16   17 ar
  37   16   51 1
  38   17   52 1
  39   18   19 am
  40   18   20 2
  41   19   21 1
  42   19   53 1
  43   21   22 ar
  44   21   26 ar
  45   22   23 ar
  46   22   54 1
  47   23   24 ar
  48   23   55 1
  49   24   25 ar
  50   24   27 1
  51   25   26 ar
  52   25   56 1
  53   26   57 1
  54   27   28 1
  55   27   58 1
  56   27   59 1
  57   28   29 1
  58   28   60 1
  59   28   61 1
  60   29   30 1
  61   29   31 2
  62   30   62 1
  63   32   33 2
  64   32   34 2

#	End of record

