#	Name: ASD03430071
#	Creating user name:	WinNT
#	Creation time:	15. 06. 2019 20:40

#	Modifying user name:	WinNT
#	Modification time:	15. 06. 2019 20:40

#	Program:	/corina/corina34_cracker 3.40 0067  02.08.2006

@<TRIPOS>MOLECULE
ASD03430071
  39   44    0    0    0
SMALL
NO_CHARGES


@<TRIPOS>ATOM
   1 C1            -0.0167     1.3806     0.0096 C.ar    
   2 C2             0.0021    -0.0041     0.0020 C.ar    
   3 C3             1.2036    -0.6812    -0.0136 C.ar    
   4 C4             2.4093     0.0136    -0.0123 C.ar    
   5 C5             2.3873     1.4051    -0.0092 C.ar    
   6 C6             1.1838     2.0870     0.0020 C.ar    
   7 O7             3.4720    -0.8412    -0.0017 O.3     
   8 C8             1.5522    -2.1453    -0.0464 C.3     
   9 C9             3.0375    -2.1451    -0.4331 C.3     
  10 C10            0.0843    -3.9062    -0.2932 C.ar    
  11 C11            0.7166    -2.9098    -1.0292 C.ar    
  12 C12            1.3204    -2.8144     1.2780 C.2     
  13 N13            0.4571    -3.8244     1.0510 N.am    
  14 O14            1.8136    -2.5069     2.3425 O.2     
  15 C15            0.4982    -2.7970    -2.3948 C.ar    
  16 C16           -0.3632    -3.6876    -3.0353 C.ar    
  17 C17           -0.9925    -4.6757    -2.3051 C.ar    
  18 C18           -0.7744    -4.7880    -0.9466 C.ar    
  19 C19            1.1790    -1.7312    -3.1718 C.2     
  20 C20            1.9363    -1.8909    -4.4181 C.2     
  21 C21            2.3659    -0.6620    -4.7512 C.2     
  22 O22            1.9406     0.2140    -3.8283 O.3     
  23 C23            1.2248    -0.4060    -2.8791 C.2     
  24 O24           -1.0498     2.2735     0.0188 O.3     
  25 C25           -0.4713     3.5260     0.4310 C.3     
  26 O26            0.9021     3.4232     0.0075 O.3     
  27 H27           -0.9267    -0.5553     0.0087 H       
  28 H28            3.3161     1.9562    -0.0152 H       
  29 H29            3.1569    -2.2560    -1.5109 H       
  30 H30            3.5763    -2.9286     0.0997 H       
  31 H31            0.1327    -4.4248     1.7404 H       
  32 H32           -0.5375    -3.6042    -4.0979 H       
  33 H33           -1.6602    -5.3654    -2.7999 H       
  34 H34           -1.2726    -5.5652    -0.3861 H       
  35 H35            2.1129    -2.8094    -4.9580 H       
  36 H36            2.9581    -0.4188    -5.6210 H       
  37 H37            0.7679     0.0674    -2.0226 H       
  38 H38           -0.9637     4.3589    -0.0709 H       
  39 H39           -0.5337     3.6388     1.5134 H       
@<TRIPOS>BOND
   1    1    2 ar
   2    1    6 ar
   3    1   24 1
   4    2    3 ar
   5    2   27 1
   6    3    4 ar
   7    3    8 1
   8    4    5 ar
   9    4    7 1
  10    5    6 ar
  11    5   28 1
  12    6   26 1
  13    7    9 1
  14    8    9 1
  15    8   11 1
  16    8   12 1
  17    9   29 1
  18    9   30 1
  19   10   11 ar
  20   10   13 1
  21   10   18 ar
  22   11   15 ar
  23   12   13 am
  24   12   14 2
  25   13   31 1
  26   15   16 ar
  27   15   19 1
  28   16   17 ar
  29   16   32 1
  30   17   18 ar
  31   17   33 1
  32   18   34 1
  33   19   20 1
  34   19   23 2
  35   20   21 2
  36   20   35 1
  37   21   22 1
  38   21   36 1
  39   22   23 1
  40   23   37 1
  41   24   25 1
  42   25   26 1
  43   25   38 1
  44   25   39 1

#	End of record

