#	Name: ASD00311362
#	Creating user name:	WinNT
#	Creation time:	15. 06. 2019 18:34

#	Modifying user name:	WinNT
#	Modification time:	15. 06. 2019 18:34

#	Program:	/corina/corina34_cracker 3.40 0067  02.08.2006

@<TRIPOS>MOLECULE
ASD00311362
  42   46    0    0    0
SMALL
NO_CHARGES


@<TRIPOS>ATOM
   1 C1            -0.0167     1.3779     0.0096 C.2     
   2 C2             0.0021    -0.0041     0.0020 C.2     
   3 C3             1.2589    -0.6766    -0.0136 C.2     
   4 C4             2.4315     0.0675    -0.0208 C.2     
   5 C5             2.3574     1.4754    -0.0126 C.2     
   6 N6             1.1649     2.0906     0.0022 N.am    
   7 C7            -1.3431    -0.5749     0.0123 C.2     
   8 C8            -2.3222     0.3255     0.0268 C.2     
   9 S9            -1.6795     1.9560     0.0358 S.3     
  10 O10            3.3823     2.1375    -0.0188 O.2     
  11 C11            3.7477    -0.6117    -0.0366 C.ar    
  12 C12            4.5934    -0.4743    -1.1371 C.ar    
  13 C13            5.8183    -1.1095    -1.1459 C.ar    
  14 C14            6.2081    -1.8815    -0.0660 C.ar    
  15 C15            5.3734    -2.0221     1.0283 C.ar    
  16 C16            4.1487    -1.3867     1.0515 C.ar    
  17 O17            1.3089    -2.0290    -0.0209 O.3     
  18 O18           -2.2910    -6.1136    -0.0338 O.3     
  19 C19           -2.8761    -6.6909     1.1383 C.3     
  20 C20           -4.0562    -5.8098     1.5699 C.3     
  21 O21           -3.5575    -4.4961     1.8442 O.3     
  22 C22           -2.7035    -3.9620     0.9285 C.ar    
  23 C23           -2.0687    -4.7704    -0.0092 C.ar    
  24 C24           -2.4692    -2.5974     0.9361 C.ar    
  25 C25           -1.5955    -2.0356     0.0065 C.ar    
  26 C26           -0.9603    -2.8507    -0.9288 C.ar    
  27 C27           -1.1982    -4.2100    -0.9333 C.ar    
  28 H28            1.1327     3.0600     0.0077 H       
  29 H29           -3.3747     0.0836     0.0359 H       
  30 H30            4.2901     0.1278    -1.9808 H       
  31 H31            6.4739    -1.0042    -1.9976 H       
  32 H32            7.1677    -2.3768    -0.0775 H       
  33 H33            5.6830    -2.6263     1.8682 H       
  34 H34            3.5000    -1.4932     1.9084 H       
  35 H35            2.2062    -2.3894    -0.0315 H       
  36 H36           -3.2310    -7.6970     0.9147 H       
  37 H37           -2.1357    -6.7308     1.9372 H       
  38 H38           -4.7929    -5.7633     0.7679 H       
  39 H39           -4.5151    -6.2238     2.4678 H       
  40 H40           -2.9627    -1.9686     1.6623 H       
  41 H41           -0.2824    -2.4186    -1.6500 H       
  42 H42           -0.7049    -4.8401    -1.6586 H       
@<TRIPOS>BOND
   1    1    2 2
   2    1    6 1
   3    1    9 1
   4    2    3 1
   5    2    7 1
   6    3    4 2
   7    3   17 1
   8    4    5 1
   9    4   11 1
  10    5    6 am
  11    5   10 2
  12    6   28 1
  13    7    8 2
  14    7   25 1
  15    8    9 1
  16    8   29 1
  17   11   12 ar
  18   11   16 ar
  19   12   13 ar
  20   12   30 1
  21   13   14 ar
  22   13   31 1
  23   14   15 ar
  24   14   32 1
  25   15   16 ar
  26   15   33 1
  27   16   34 1
  28   17   35 1
  29   18   19 1
  30   18   23 1
  31   19   20 1
  32   19   36 1
  33   19   37 1
  34   20   21 1
  35   20   38 1
  36   20   39 1
  37   21   22 1
  38   22   23 ar
  39   22   24 ar
  40   23   27 ar
  41   24   25 ar
  42   24   40 1
  43   25   26 ar
  44   26   27 ar
  45   26   41 1
  46   27   42 1

#	End of record

