#	Name: ASD03240945
#	Creating user name:	WinNT
#	Creation time:	15. 06. 2019 20:35

#	Modifying user name:	WinNT
#	Modification time:	15. 06. 2019 20:35

#	Program:	/corina/corina34_cracker 3.40 0067  02.08.2006

@<TRIPOS>MOLECULE
ASD03240945
  77   83    0    0    0
SMALL
NO_CHARGES


@<TRIPOS>ATOM
   1 C1            -0.0409     1.4321    -0.4934 C.2     
   2 C2            -0.0091    -0.0245    -0.2428 C.ar    
   3 C3             1.2225    -0.6950    -0.1194 C.ar    
   4 C4             2.4929     0.0538    -0.2396 C.2     
   5 C5             1.2379    -2.0663     0.1169 C.ar    
   6 C6             0.0482    -2.7620     0.2290 C.ar    
   7 C7            -1.1621    -2.1033     0.1078 C.ar    
   8 C8            -1.1970    -0.7404    -0.1218 C.ar    
   9 O9             0.5161     1.8927    -1.4694 O.2     
  10 O10           -0.6923     2.2479     0.3579 O.3     
  11 O11            2.4780     1.2660    -0.3253 O.2     
  12 N12            3.6666    -0.6084    -0.2542 N.am    
  13 N13            7.6288     0.2849    -1.3746 N.3     
  14 C14            7.3831     0.0632     0.0561 C.3     
  15 C15            6.0628    -0.6889     0.2377 C.3     
  16 C16            4.9246     0.1330    -0.3733 C.3     
  17 C17            5.2284     0.3911    -1.8517 C.3     
  18 C18            6.5730     1.1119    -1.9728 C.3     
  19 C19            8.9530     0.8813    -1.5952 C.3     
  20 C20            9.2709     0.8680    -3.0682 C.ar    
  21 C21            8.9096     1.9430    -3.8607 C.ar    
  22 C22            9.1982     1.9369    -5.2099 C.ar    
  23 C23            9.8558     0.8440    -5.7746 C.ar    
  24 C24           10.2176    -0.2368    -4.9703 C.ar    
  25 C25            9.9280    -0.2165    -3.6214 C.ar    
  26 N26            8.6709     1.9854   -10.2607 N.pl3   
  27 C27            8.9403     1.9835   -11.6026 C.2     
  28 N28           10.0559     1.4252   -12.1048 N.2     
  29 C29           10.9490     0.8512   -11.3405 C.2     
  30 C30           10.7295     0.8146    -9.8962 C.ar    
  31 C31           11.6475     0.2145    -9.0276 C.ar    
  32 C32           11.3594     0.2248    -7.6669 C.ar    
  33 C33           10.1682     0.8310    -7.2221 C.ar    
  34 N34            9.3223     1.3891    -8.0748 N.ar    
  35 C35            9.5572     1.4025    -9.3754 C.ar    
  36 C36            7.8818     2.6323   -12.2239 C.2     
  37 C37            6.9839     3.0178   -11.2364 C.2     
  38 N38            7.4437     2.6320   -10.0703 N.2     
  39 C39           12.2935    -0.3957    -6.6972 C.ar    
  40 C40           12.7634    -1.6909    -6.9089 C.ar    
  41 C41           13.6331    -2.2632    -6.0031 C.ar    
  42 C42           14.0386    -1.5541    -4.8867 C.ar    
  43 C43           13.5753    -0.2687    -4.6711 C.ar    
  44 C44           12.7098     0.3159    -5.5731 C.ar    
  45 C45            5.6896     3.7541   -11.4679 C.3     
  46 H46            2.1791    -2.5873     0.2123 H       
  47 H47            0.0640    -3.8262     0.4120 H       
  48 H48           -2.0854    -2.6564     0.1967 H       
  49 H49           -2.1456    -0.2319    -0.2113 H       
  50 H50           -0.6855     3.1928     0.1524 H       
  51 H51            3.6785    -1.5759    -0.1858 H       
  52 H52            8.1977    -0.5260     0.4774 H       
  53 H53            7.3273     1.0238     0.5681 H       
  54 H54            6.1228    -1.6555    -0.2624 H       
  55 H55            5.8731    -0.8396     1.3005 H       
  56 H56            4.8383     1.0835     0.1532 H       
  57 H57            5.2753    -0.5585    -2.3847 H       
  58 H58            4.4426     1.0120    -2.2817 H       
  59 H59            6.5209     2.0676    -1.4512 H       
  60 H60            6.7991     1.2844    -3.0250 H       
  61 H61            8.9535     1.9093    -1.2327 H       
  62 H62            9.7052     0.3055    -1.0560 H       
  63 H63            8.4002     2.7884    -3.4224 H       
  64 H64            8.9153     2.7765    -5.8276 H       
  65 H65           10.7265    -1.0859    -5.4018 H       
  66 H66           10.2112    -1.0509    -2.9969 H       
  67 H67           11.8359     0.4103   -11.7709 H       
  68 H68           12.5518    -0.2421    -9.4019 H       
  69 H69            7.7756     2.8063   -13.2844 H       
  70 H70           12.4472    -2.2455    -7.7800 H       
  71 H71           13.9976    -3.2667    -6.1659 H       
  72 H72           14.7194    -2.0060    -4.1804 H       
  73 H73           13.8947     0.2799    -3.7974 H       
  74 H74           12.3521     1.3212    -5.4062 H       
  75 H75            4.8850     3.0350   -11.6216 H       
  76 H76            5.4631     4.3727   -10.5995 H       
  77 H77            5.7845     4.3872   -12.3502 H       
@<TRIPOS>BOND
   1    1    2 1
   2    1    9 2
   3    1   10 1
   4    2    3 ar
   5    2    8 ar
   6    3    4 1
   7    3    5 ar
   8    4   11 2
   9    4   12 am
  10    5    6 ar
  11    5   46 1
  12    6    7 ar
  13    6   47 1
  14    7    8 ar
  15    7   48 1
  16    8   49 1
  17   10   50 1
  18   12   16 1
  19   12   51 1
  20   13   14 1
  21   13   18 1
  22   13   19 1
  23   14   15 1
  24   14   52 1
  25   14   53 1
  26   15   16 1
  27   15   54 1
  28   15   55 1
  29   16   17 1
  30   16   56 1
  31   17   18 1
  32   17   57 1
  33   17   58 1
  34   18   59 1
  35   18   60 1
  36   19   20 1
  37   19   61 1
  38   19   62 1
  39   20   21 ar
  40   20   25 ar
  41   21   22 ar
  42   21   63 1
  43   22   23 ar
  44   22   64 1
  45   23   24 ar
  46   23   33 1
  47   24   25 ar
  48   24   65 1
  49   25   66 1
  50   26   27 1
  51   26   35 1
  52   26   38 1
  53   27   28 1
  54   27   36 2
  55   28   29 2
  56   29   30 1
  57   29   67 1
  58   30   31 ar
  59   30   35 ar
  60   31   32 ar
  61   31   68 1
  62   32   33 ar
  63   32   39 1
  64   33   34 ar
  65   34   35 ar
  66   36   37 1
  67   36   69 1
  68   37   38 2
  69   37   45 1
  70   39   40 ar
  71   39   44 ar
  72   40   41 ar
  73   40   70 1
  74   41   42 ar
  75   41   71 1
  76   42   43 ar
  77   42   72 1
  78   43   44 ar
  79   43   73 1
  80   44   74 1
  81   45   75 1
  82   45   76 1
  83   45   77 1

#	End of record

