#	Name: ASD04550043
#	Creating user name:	WinNT
#	Creation time:	15. 06. 2019 20:49

#	Modifying user name:	WinNT
#	Modification time:	15. 06. 2019 20:49

#	Program:	/corina/corina34_cracker 3.40 0067  02.08.2006

@<TRIPOS>MOLECULE
ASD04550043
  36   38    0    0    0
SMALL
NO_CHARGES


@<TRIPOS>ATOM
   1 C1            -0.0168     1.3847     0.0097 C.ar    
   2 C2             0.0021    -0.0041     0.0020 C.ar    
   3 C3             1.2159    -0.6790    -0.0132 C.ar    
   4 C4             2.3997     0.0322    -0.0207 C.ar    
   5 C5             2.3774     1.4149    -0.0130 C.ar    
   6 C6             1.1707     2.0899     0.0021 C.ar    
   7 C7             3.6712     2.1877    -0.0212 C.3     
   8 C8             3.7272     3.0751    -1.2663 C.3     
   9 N9            -1.1985    -0.7212     0.0101 N.am    
  10 C10           -2.4309    -0.1847     0.0247 C.2     
  11 C11           -3.4523    -1.2491     0.0294 C.ar    
  12 C12           -2.7987    -2.4835     0.0168 C.ar    
  13 C13           -1.3207    -2.1834    -0.0024 C.3     
  14 C14           -4.8481    -1.2132     0.0427 C.ar    
  15 C15           -5.5647    -2.3918     0.0434 C.ar    
  16 C16           -4.9070    -3.6093     0.0309 C.ar    
  17 C17           -3.5230    -3.6531     0.0181 C.ar    
  18 O18           -2.6696     1.0072     0.0334 O.2     
  19 C19            3.7499     3.0485     1.2132 C.2     
  20 O20            2.8480     3.0358     2.0171 O.2     
  21 O21            4.8220     3.8294     1.4195 O.3     
  22 H22           -0.9590     1.9125     0.0170 H       
  23 H23            1.2339    -1.7589    -0.0188 H       
  24 H24            3.3439    -0.4920    -0.0322 H       
  25 H25            1.1567     3.1698     0.0084 H       
  26 H26            4.5100     1.4918    -0.0330 H       
  27 H27            2.8884     3.7710    -1.2546 H       
  28 H28            4.6630     3.6341    -1.2723 H       
  29 H29            3.6703     2.4524    -2.1592 H       
  30 H30           -0.8665    -2.5956    -0.9035 H       
  31 H31           -0.8421    -2.6008     0.8835 H       
  32 H32           -5.3653    -0.2651     0.0528 H       
  33 H33           -6.6443    -2.3643     0.0540 H       
  34 H34           -5.4748    -4.5280     0.0319 H       
  35 H35           -3.0126    -4.6048     0.0083 H       
  36 H36            4.8273     4.3638     2.2255 H       
@<TRIPOS>BOND
   1    1    2 ar
   2    1    6 ar
   3    1   22 1
   4    2    3 ar
   5    2    9 1
   6    3    4 ar
   7    3   23 1
   8    4    5 ar
   9    4   24 1
  10    5    6 ar
  11    5    7 1
  12    6   25 1
  13    7    8 1
  14    7   19 1
  15    7   26 1
  16    8   27 1
  17    8   28 1
  18    8   29 1
  19    9   10 am
  20    9   13 1
  21   10   11 1
  22   10   18 2
  23   11   12 ar
  24   11   14 ar
  25   12   13 1
  26   12   17 ar
  27   13   30 1
  28   13   31 1
  29   14   15 ar
  30   14   32 1
  31   15   16 ar
  32   15   33 1
  33   16   17 ar
  34   16   34 1
  35   17   35 1
  36   19   20 2
  37   19   21 1
  38   21   36 1

#	End of record

