#	Name: ASD05303005
#	Creating user name:	WinNT
#	Creation time:	15. 06. 2019 20:58

#	Modifying user name:	WinNT
#	Modification time:	15. 06. 2019 20:58

#	Program:	/corina/corina34_cracker 3.40 0067  02.08.2006

@<TRIPOS>MOLECULE
ASD05303005
  35   38    0    0    0
SMALL
NO_CHARGES


@<TRIPOS>ATOM
   1 C1            -0.0688     1.0695     0.9923 C.ar    
   2 C2             0.0723     0.1248    -0.0068 C.ar    
   3 C3             1.2238    -0.6388    -0.0807 C.ar    
   4 C4             2.2329    -0.4542     0.8484 C.ar    
   5 C5             2.0951     0.4993     1.8553 C.ar    
   6 C6             0.9375     1.2587     1.9219 C.ar    
   7 O7             3.0853     0.6897     2.7638 O.3     
   8 N8             3.4054    -1.2278     0.7920 N.am    
   9 C9             4.0680    -0.2377     2.8921 C.ar    
  10 C10            4.2528    -1.2124     1.9135 C.ar    
  11 C11            5.2588    -2.1535     2.0472 C.ar    
  12 C12            6.0826    -2.1270     3.1586 C.ar    
  13 C13            5.9002    -1.1633     4.1325 C.ar    
  14 C14            4.8975    -0.2197     4.0025 C.ar    
  15 C15            3.7063    -1.9591    -0.2994 C.2     
  16 O16            2.8927    -2.0774    -1.1953 O.2     
  17 C17            5.0251    -2.6172    -0.4072 C.ar    
  18 C18            5.1063    -3.9990    -0.5892 C.ar    
  19 C19            6.3406    -4.6070    -0.6890 C.ar    
  20 C20            7.4964    -3.8506    -0.6086 C.ar    
  21 C21            7.4230    -2.4807    -0.4282 C.ar    
  22 C22            6.1951    -1.8592    -0.3331 C.ar    
  23 H23           -0.9676     1.6660     1.0446 H       
  24 H24           -0.7169    -0.0176    -0.7302 H       
  25 H25            1.3347    -1.3772    -0.8610 H       
  26 H26            0.8213     1.9985     2.7001 H       
  27 H27            5.4002    -2.9067     1.2862 H       
  28 H28            6.8684    -2.8601     3.2653 H       
  29 H29            6.5442    -1.1469     4.9994 H       
  30 H30            4.7601     0.5308     4.7668 H       
  31 H31            4.2050    -4.5906    -0.6515 H       
  32 H32            6.4049    -5.6758    -0.8299 H       
  33 H33            8.4602    -4.3317    -0.6866 H       
  34 H34            8.3290    -1.8962    -0.3659 H       
  35 H35            6.1392    -0.7899    -0.1923 H       
@<TRIPOS>BOND
   1    1    2 ar
   2    1    6 ar
   3    1   23 1
   4    2    3 ar
   5    2   24 1
   6    3    4 ar
   7    3   25 1
   8    4    5 ar
   9    4    8 1
  10    5    6 ar
  11    5    7 1
  12    6   26 1
  13    7    9 1
  14    8   10 1
  15    8   15 am
  16    9   10 ar
  17    9   14 ar
  18   10   11 ar
  19   11   12 ar
  20   11   27 1
  21   12   13 ar
  22   12   28 1
  23   13   14 ar
  24   13   29 1
  25   14   30 1
  26   15   16 2
  27   15   17 1
  28   17   18 ar
  29   17   22 ar
  30   18   19 ar
  31   18   31 1
  32   19   20 ar
  33   19   32 1
  34   20   21 ar
  35   20   33 1
  36   21   22 ar
  37   21   34 1
  38   22   35 1

#	End of record

