#	Name: ASD02198493
#	Creating user name:	WinNT
#	Creation time:	15. 06. 2019 20:19

#	Modifying user name:	WinNT
#	Modification time:	15. 06. 2019 20:19

#	Program:	/corina/corina34_cracker 3.40 0067  02.08.2006

@<TRIPOS>MOLECULE
ASD02198493
  37   40    0    0    0
SMALL
NO_CHARGES


@<TRIPOS>ATOM
   1 C1             0.0685     1.0425    -0.1291 C.2     
   2 C2             0.2981    -0.2916    -0.2189 C.2     
   3 N3             1.5595    -0.7788    -0.2291 N.pl3   
   4 N4             2.6018    -0.0361    -0.1566 N.2     
   5 C5             2.5216     1.2737    -0.0657 C.2     
   6 C6             1.1905     1.9020    -0.0469 C.2     
   7 C7             1.7359    -2.1634    -0.3230 C.ar    
   8 N8             3.1754    -4.0067    -0.5744 N.ar    
   9 C9             2.1596    -4.8456    -0.5148 C.ar    
  10 C10            0.8652    -4.3845    -0.3595 C.ar    
  11 C11            0.6398    -3.0216    -0.2614 C.ar    
  12 C12            3.7441     2.0985     0.0166 C.2     
  13 N13            4.8780     1.8018     0.7194 N.pl3   
  14 N14            5.7871     2.8491     0.5243 N.2     
  15 C15            5.2378     3.7430    -0.2589 C.2     
  16 C16            3.9584     3.3088    -0.6057 C.2     
  17 C17            5.0925     0.6558     1.4956 C.ar    
  18 C18            4.0864     0.1795     2.3259 C.ar    
  19 O19            1.0594     3.1141     0.0358 O.2     
  20 C20            3.0055    -2.7028    -0.4847 C.ar    
  21 C21            6.3096    -0.0097     1.4323 C.ar    
  22 C22            6.5180    -1.1394     2.1990 C.ar    
  23 C23            5.5162    -1.6079     3.0291 C.ar    
  24 C24            4.3010    -0.9507     3.0901 C.ar    
  25 H25           -0.9371     1.4363    -0.1250 H       
  26 H26           -0.5372    -0.9732    -0.2827 H       
  27 H27            2.3409    -5.9075    -0.5923 H       
  28 H28            0.0398    -5.0794    -0.3121 H       
  29 H29           -0.3607    -2.6335    -0.1399 H       
  30 H30            5.7004     4.6626    -0.5857 H       
  31 H31            3.2590     3.8309    -1.2418 H       
  32 H32            3.1373     0.6926     2.3742 H       
  33 H33            3.8621    -2.0471    -0.5378 H       
  34 H34            7.0923     0.3555     0.7839 H       
  35 H35            7.4643    -1.6576     2.1499 H       
  36 H36            5.6814    -2.4918     3.6273 H       
  37 H37            3.5206    -1.3189     3.7396 H       
@<TRIPOS>BOND
   1    1    2 2
   2    1    6 1
   3    1   25 1
   4    2    3 1
   5    2   26 1
   6    3    4 1
   7    3    7 1
   8    4    5 2
   9    5    6 1
  10    5   12 1
  11    6   19 2
  12    7   20 ar
  13    7   11 ar
  14    8    9 ar
  15    8   20 ar
  16    9   10 ar
  17    9   27 1
  18   10   11 ar
  19   10   28 1
  20   11   29 1
  21   12   13 1
  22   12   16 2
  23   13   14 1
  24   13   17 1
  25   14   15 2
  26   15   16 1
  27   15   30 1
  28   16   31 1
  29   17   21 ar
  30   17   18 ar
  31   18   24 ar
  32   18   32 1
  33   20   33 1
  34   21   22 ar
  35   21   34 1
  36   22   23 ar
  37   22   35 1
  38   23   24 ar
  39   23   36 1
  40   24   37 1

#	End of record

