#	Name: ASD08830030
#	Creating user name:	WinNT
#	Creation time:	15. 06. 2019 21:19

#	Modifying user name:	WinNT
#	Modification time:	15. 06. 2019 21:19

#	Program:	/corina/corina34_cracker 3.40 0067  02.08.2006

@<TRIPOS>MOLECULE
ASD08830030
  39   41    0    0    0
SMALL
NO_CHARGES


@<TRIPOS>ATOM
   1 C1            -0.0140     1.4180     0.1035 C.ar    
   2 C2             0.0047    -0.0004     0.1113 C.ar    
   3 C3             1.1989     2.1317     0.0644 C.ar    
   4 C4             2.3792     1.4644     0.0339 C.ar    
   5 C5             2.4126     0.0557     0.0408 C.ar    
   6 C6             1.2334    -0.6756     0.0794 C.ar    
   7 C7             3.7055    -0.6444     0.0062 C.2     
   8 C8             4.9887     0.1446    -0.0363 C.3     
   9 C9             6.1781    -0.8173    -0.0663 C.3     
  10 N10            7.4246    -0.0509    -0.1958 N.3     
  11 O11            3.7389    -1.8566     0.0120 O.2     
  12 C12            7.6474     0.7916     0.9814 C.3     
  13 C13           -1.2473     2.0886     0.1291 C.ar    
  14 C14           -1.2113    -0.7061     0.1505 C.ar    
  15 C15           -2.3871    -0.0209     0.1803 C.ar    
  16 C16           -2.4052     1.3721     0.1611 C.ar    
  17 C17            9.1155     1.2275     1.0393 C.3     
  18 S18            9.4827     2.2172    -0.4420 S.3     
  19 C19            8.8792     1.1364    -1.7748 C.3     
  20 C20            7.4437     0.7131    -1.4453 C.3     
  21 H21            1.1894     3.2116     0.0583 H       
  22 H22            3.3051     2.0196     0.0037 H       
  23 H23            1.2620    -1.7552     0.0846 H       
  24 H24            5.0027     0.7677    -0.9306 H       
  25 H25            5.0556     0.7776     0.8486 H       
  26 H26            6.2013    -1.3954     0.8575 H       
  27 H27            6.0774    -1.4933    -0.9154 H       
  28 H28            7.0098     1.6737     0.9214 H       
  29 H29            7.4010     0.2286     1.8816 H       
  30 H30           -1.2778     3.1681     0.1239 H       
  31 H31           -1.2121    -1.7861     0.1566 H       
  32 H32           -3.3196    -0.5649     0.2100 H       
  33 H33           -3.3516     1.8919     0.1859 H       
  34 H34            9.2839     1.8290     1.9326 H       
  35 H35            9.7582     0.3475     1.0604 H       
  36 H36            8.8932     1.6784    -2.7204 H       
  37 H37            9.5142     0.2534    -1.8461 H       
  38 H38            7.0538     0.0947    -2.2538 H       
  39 H39            6.8202     1.6005    -1.3367 H       
@<TRIPOS>BOND
   1    1    2 ar
   2    1    3 ar
   3    1   13 ar
   4    2   14 ar
   5    2    6 ar
   6    3    4 ar
   7    3   21 1
   8    4    5 ar
   9    4   22 1
  10    5    6 ar
  11    5    7 1
  12    6   23 1
  13    7    8 1
  14    7   11 2
  15    8    9 1
  16    8   24 1
  17    8   25 1
  18    9   10 1
  19    9   26 1
  20    9   27 1
  21   10   12 1
  22   10   20 1
  23   12   17 1
  24   12   28 1
  25   12   29 1
  26   13   16 ar
  27   13   30 1
  28   14   15 ar
  29   14   31 1
  30   15   16 ar
  31   15   32 1
  32   16   33 1
  33   17   18 1
  34   17   34 1
  35   17   35 1
  36   18   19 1
  37   19   20 1
  38   19   36 1
  39   19   37 1
  40   20   38 1
  41   20   39 1

#	End of record

