#	Name: ASD01940698
#	Creating user name:	WinNT
#	Creation time:	15. 06. 2019 20:13

#	Modifying user name:	WinNT
#	Modification time:	15. 06. 2019 20:13

#	Program:	/corina/corina34_cracker 3.40 0067  02.08.2006

@<TRIPOS>MOLECULE
ASD01940698
  42   44    0    0    0
SMALL
NO_CHARGES


@<TRIPOS>ATOM
   1 C1             0.1860     0.9953     0.9998 C.ar    
   2 C2            -0.3274     0.3911    -0.1331 C.ar    
   3 C3             0.4639     0.2360    -1.2584 C.ar    
   4 C4             1.7746     0.6858    -1.2545 C.ar    
   5 C5             2.2953     1.2938    -0.1199 C.ar    
   6 C6             1.4965     1.4488     1.0119 C.ar    
   7 N7             2.0166     2.0620     2.1596 N.am    
   8 S8             1.5611     1.5312     3.6606 S.o2    
   9 C9             2.2421    -0.1464     3.7734 C.3     
  10 O10            2.2325     2.4033     4.5594 O.2     
  11 O11            0.1419     1.4903     3.6021 O.2     
  12 F12           -0.0425    -0.3555    -2.3624 F       
  13 F13            2.5453     0.5326    -2.3535 F       
  14 N14            3.6208     1.7495    -0.1123 N.pl3   
  15 C15            4.6657     0.8571     0.1481 C.ar    
  16 C16            5.9685     1.3278     0.2786 C.ar    
  17 C17            4.4044    -0.4996     0.2826 C.ar    
  18 C18            5.4386    -1.3792     0.5399 C.ar    
  19 C19            6.7339    -0.9101     0.6636 C.ar    
  20 C20            6.9984     0.4425     0.5360 C.ar    
  21 F21            6.2266     2.6481     0.1536 F       
  22 Br22           8.1453    -2.1183     1.0157 Br      
  23 C23            1.7851    -0.8139     5.0824 C.3     
  24 C24            0.9789    -2.0661     4.6804 C.3     
  25 C25            1.4966    -2.4121     3.2622 C.3     
  26 C26            1.6976    -1.0163     2.6216 C.3     
  27 H27           -0.4356     1.1183     1.8744 H       
  28 H28           -1.3483     0.0389    -0.1399 H       
  29 H29            2.6434     2.7974     2.0748 H       
  30 H30            3.3308    -0.1106     3.7328 H       
  31 H31            3.8134     2.6839    -0.2877 H       
  32 H32            3.3935    -0.8674     0.1866 H       
  33 H33            5.2352    -2.4347     0.6448 H       
  34 H34            8.0109     0.8058     0.6327 H       
  35 H35            2.6520    -1.1028     5.6766 H       
  36 H36            1.1542    -0.1298     5.6498 H       
  37 H37            1.1787    -2.8861     5.3701 H       
  38 H38           -0.0872    -1.8408     4.6528 H       
  39 H39            2.4421    -2.9517     3.3171 H       
  40 H40            0.7539    -2.9875     2.7095 H       
  41 H41            0.7475    -0.6214     2.2616 H       
  42 H42            2.4219    -1.0702     1.8089 H       
@<TRIPOS>BOND
   1    1    2 ar
   2    1    6 ar
   3    1   27 1
   4    2    3 ar
   5    2   28 1
   6    3    4 ar
   7    3   12 1
   8    4    5 ar
   9    4   13 1
  10    5    6 ar
  11    5   14 1
  12    6    7 1
  13    7    8 am
  14    7   29 1
  15    8    9 1
  16    8   10 2
  17    8   11 2
  18    9   23 1
  19    9   26 1
  20    9   30 1
  21   14   15 1
  22   14   31 1
  23   15   16 ar
  24   15   17 ar
  25   16   21 1
  26   16   20 ar
  27   17   18 ar
  28   17   32 1
  29   18   19 ar
  30   18   33 1
  31   19   20 ar
  32   19   22 1
  33   20   34 1
  34   23   24 1
  35   23   35 1
  36   23   36 1
  37   24   25 1
  38   24   37 1
  39   24   38 1
  40   25   26 1
  41   25   39 1
  42   25   40 1
  43   26   41 1
  44   26   42 1

#	End of record

