#	Name: ASD08710007
#	Creating user name:	WinNT
#	Creation time:	15. 06. 2019 21:19

#	Modifying user name:	WinNT
#	Modification time:	15. 06. 2019 21:19

#	Program:	/corina/corina34_cracker 3.40 0067  02.08.2006

@<TRIPOS>MOLECULE
ASD08710007
  35   36    0    0    0
SMALL
NO_CHARGES


@<TRIPOS>ATOM
   1 C1            -0.0484     1.3671     0.3274 C.3     
   2 C2             0.1092    -0.1564     0.2766 C.3     
   3 N3             1.2476     1.9998     0.0483 N.3     
   4 C4             1.7141     1.6830    -1.3081 C.3     
   5 C5             1.9439     0.1725    -1.4259 C.3     
   6 N6             0.7141    -0.5207    -1.0135 N.am    
   7 S7             0.0290    -1.6812    -1.9760 S.o2    
   8 C8            -1.2635    -0.8196     0.4063 C.3     
   9 O9            -1.3704    -1.6273    -1.7353 O.2     
  10 O10            0.6024    -1.5221    -3.2664 O.2     
  11 C11            0.5769    -3.2453    -1.3775 C.ar    
  12 C12           -0.1531    -3.9092    -0.4094 C.ar    
  13 C13            1.7336    -3.8110    -1.8802 C.ar    
  14 C14            2.1635    -5.0381    -1.4107 C.ar    
  15 C15            1.4368    -5.6992    -0.4382 C.ar    
  16 C16            0.2767    -5.1363     0.0601 C.ar    
  17 C17            1.9051    -7.0372     0.0732 C.3     
  18 F18            2.7541    -6.8465     1.1687 F       
  19 F19            0.7996    -7.7988     0.4670 F       
  20 F20            2.5963    -7.7083    -0.9412 F       
  21 H21           -0.7758     1.6826    -0.4205 H       
  22 H22           -0.3925     1.6643     1.3181 H       
  23 H23            0.7532    -0.4852     1.0922 H       
  24 H24            1.2011     2.9976     0.1909 H       
  25 H25            0.9622     1.9942    -2.0333 H       
  26 H26            2.6484     2.2094    -1.5037 H       
  27 H27            2.1791    -0.0826    -2.4593 H       
  28 H28            2.7671    -0.1244    -0.7761 H       
  29 H29           -1.9406    -0.4021    -0.3389 H       
  30 H30           -1.1648    -1.8933     0.2464 H       
  31 H31           -1.6630    -0.6361     1.4037 H       
  32 H32           -1.0591    -3.4691    -0.0196 H       
  33 H33            2.3014    -3.2945    -2.6400 H       
  34 H34            3.0668    -5.4805    -1.8039 H       
  35 H35           -0.2911    -5.6528     0.8199 H       
@<TRIPOS>BOND
   1    1    2 1
   2    1    3 1
   3    1   21 1
   4    1   22 1
   5    2    8 1
   6    2    6 1
   7    2   23 1
   8    3    4 1
   9    3   24 1
  10    4    5 1
  11    4   25 1
  12    4   26 1
  13    5    6 1
  14    5   27 1
  15    5   28 1
  16    6    7 am
  17    7    9 2
  18    7   10 2
  19    7   11 1
  20    8   29 1
  21    8   30 1
  22    8   31 1
  23   11   12 ar
  24   11   13 ar
  25   12   16 ar
  26   12   32 1
  27   13   14 ar
  28   13   33 1
  29   14   15 ar
  30   14   34 1
  31   15   16 ar
  32   15   17 1
  33   16   35 1
  34   17   18 1
  35   17   19 1
  36   17   20 1

#	End of record

