#	Name: ASD00840116
#	Creating user name:	WinNT
#	Creation time:	15. 06. 2019 18:37

#	Modifying user name:	WinNT
#	Modification time:	15. 06. 2019 18:37

#	Program:	/corina/corina34_cracker 3.40 0067  02.08.2006

@<TRIPOS>MOLECULE
ASD00840116
  87   92    0    0    0
SMALL
NO_CHARGES


@<TRIPOS>ATOM
   1 N1            -0.0802     1.3790     0.0131 N.3     
   2 C2            -0.1659    -0.0799     0.1571 C.3     
   3 C3             0.5927    -0.5152     1.4129 C.3     
   4 C4             2.0561    -0.0803     1.2958 C.3     
   5 C5             2.1152     1.4370     1.0982 C.3     
   6 C6             1.3125     1.8158    -0.1485 C.3     
   7 N7            -2.2638     5.3657    -2.7945 N.am    
   8 C8            -1.7474     4.1259    -2.8196 C.2     
   9 C9            -2.6357     3.2547    -1.9572 C.3     
  10 C10           -3.7063     4.2004    -1.4620 C.ar    
  11 C11           -4.7967     4.0268    -0.6472 C.ar    
  12 C12           -5.6290     5.1135    -0.3576 C.ar    
  13 C13           -5.3379     6.3693    -0.9048 C.ar    
  14 C14           -4.2401     6.5306    -1.7221 C.ar    
  15 C15           -3.4107     5.4460    -2.0096 C.ar    
  16 O16           -0.7557     3.7709    -3.4208 O.2     
  17 F17           -6.1354     7.4250    -0.6313 F       
  18 C18           -3.2467     2.1479    -2.7773 C.ar    
  19 C19           -4.0025     1.1618    -2.1594 C.ar    
  20 C20           -4.5635     0.1444    -2.9171 C.ar    
  21 C21           -4.3687     0.1151    -4.2846 C.ar    
  22 C22           -3.6149     1.0984    -4.8978 C.ar    
  23 C23           -3.0597     2.1173    -4.1455 C.ar    
  24 O24           -4.1923     1.1926    -0.8141 O.3     
  25 C25           -4.9812     0.1452    -0.2461 C.3     
  26 C26           -5.0831     0.3468     1.2672 C.3     
  27 C27           -6.7697     4.9429     0.4912 C.1     
  28 N28           -7.6745     4.8076     1.1645 N.1     
  29 S29           -1.6064     6.6545    -3.6004 S.o2    
  30 O30           -2.0534     7.8213    -2.9236 O.2     
  31 O31           -0.2328     6.3473    -3.7956 O.2     
  32 C32           -2.3392     6.6968    -5.2022 C.ar    
  33 C33           -3.4987     7.4194    -5.4129 C.ar    
  34 C34           -4.0736     7.4527    -6.6696 C.ar    
  35 C35           -3.4889     6.7636    -7.7156 C.ar    
  36 C36           -2.3289     6.0418    -7.5051 C.ar    
  37 C37           -1.7516     6.0121    -6.2494 C.ar    
  38 C38           -1.8555     2.6873    -0.7995 C.2     
  39 O39           -2.1293     3.0158     0.3354 O.2     
  40 N40           -0.8535     1.8146    -1.0253 N.am    
  41 N41            2.7761    -0.4438     2.5235 N.3     
  42 C42            4.2104    -0.1483     2.4001 C.3     
  43 C43            4.9097    -0.4660     3.7239 C.3     
  44 N44            4.6934    -1.8796     4.0623 N.3     
  45 C45            3.2591    -2.1751     4.1858 C.3     
  46 C46            2.5598    -1.8574     2.8620 C.3     
  47 C47            5.4134    -2.2431     5.2901 C.3     
  48 C48            4.9716    -3.6348     5.7472 C.3     
  49 H49           -1.2114    -0.3755     0.2436 H       
  50 H50            0.2753    -0.5577    -0.7176 H       
  51 H51            0.1434    -0.0486     2.2895 H       
  52 H52            0.5421    -1.5996     1.5110 H       
  53 H53            2.5166    -0.5770     0.4418 H       
  54 H54            1.6898     1.9343     1.9699 H       
  55 H55            3.1523     1.7474     0.9714 H       
  56 H56            1.7467     1.3291    -1.0218 H       
  57 H57            1.3406     2.8969    -0.2840 H       
  58 H58           -5.0121     3.0538    -0.2308 H       
  59 H59           -4.0205     7.5012    -2.1417 H       
  60 H60           -5.1518    -0.6245    -2.4384 H       
  61 H61           -4.8053    -0.6769    -4.8750 H       
  62 H62           -3.4632     1.0734    -5.9668 H       
  63 H63           -2.4752     2.8870    -4.6275 H       
  64 H64           -5.9795     0.1644    -0.6832 H       
  65 H65           -4.5120    -0.8165    -0.4537 H       
  66 H66           -5.6849    -0.4521     1.7004 H       
  67 H67           -4.0848     0.3276     1.7043 H       
  68 H68           -5.5523     1.3085     1.4748 H       
  69 H69           -3.9555     7.9577    -4.5957 H       
  70 H70           -4.9799     8.0166    -6.8341 H       
  71 H71           -3.9385     6.7890    -8.6973 H       
  72 H72           -1.8722     5.5032    -8.3223 H       
  73 H73           -0.8433     5.4512    -6.0858 H       
  74 H74           -0.6815     1.4960    -1.9251 H       
  75 H75            4.6404    -0.7587     1.6060 H       
  76 H76            4.3451     0.9067     2.1617 H       
  77 H77            5.9784    -0.2750     3.6256 H       
  78 H78            4.4985     0.1638     4.5127 H       
  79 H79            3.1244    -3.2301     4.4242 H       
  80 H80            2.8292    -1.5647     4.9799 H       
  81 H81            1.4912    -2.0484     2.9603 H       
  82 H82            2.9710    -2.4872     2.0731 H       
  83 H83            6.4857    -2.2483     5.0945 H       
  84 H84            5.1900    -1.5163     6.0710 H       
  85 H85            5.1950    -4.3617     4.9663 H       
  86 H86            5.5059    -3.9046     6.6583 H       
  87 H87            3.8994    -3.6297     5.9429 H       
@<TRIPOS>BOND
   1    1    2 1
   2    1    6 1
   3    1   40 1
   4    2    3 1
   5    2   49 1
   6    2   50 1
   7    3    4 1
   8    3   51 1
   9    3   52 1
  10    4    5 1
  11    4   41 1
  12    4   53 1
  13    5    6 1
  14    5   54 1
  15    5   55 1
  16    6   56 1
  17    6   57 1
  18    7    8 am
  19    7   15 1
  20    7   29 am
  21    8    9 1
  22    8   16 2
  23    9   10 1
  24    9   18 1
  25    9   38 1
  26   10   11 ar
  27   10   15 ar
  28   11   12 ar
  29   11   58 1
  30   12   13 ar
  31   12   27 1
  32   13   14 ar
  33   13   17 1
  34   14   15 ar
  35   14   59 1
  36   18   19 ar
  37   18   23 ar
  38   19   20 ar
  39   19   24 1
  40   20   21 ar
  41   20   60 1
  42   21   22 ar
  43   21   61 1
  44   22   23 ar
  45   22   62 1
  46   23   63 1
  47   24   25 1
  48   25   26 1
  49   25   64 1
  50   25   65 1
  51   26   66 1
  52   26   67 1
  53   26   68 1
  54   27   28 3
  55   29   30 2
  56   29   31 2
  57   29   32 1
  58   32   33 ar
  59   32   37 ar
  60   33   34 ar
  61   33   69 1
  62   34   35 ar
  63   34   70 1
  64   35   36 ar
  65   35   71 1
  66   36   37 ar
  67   36   72 1
  68   37   73 1
  69   38   39 2
  70   38   40 am
  71   40   74 1
  72   41   42 1
  73   41   46 1
  74   42   43 1
  75   42   75 1
  76   42   76 1
  77   43   44 1
  78   43   77 1
  79   43   78 1
  80   44   45 1
  81   44   47 1
  82   45   46 1
  83   45   79 1
  84   45   80 1
  85   46   81 1
  86   46   82 1
  87   47   48 1
  88   47   83 1
  89   47   84 1
  90   48   85 1
  91   48   86 1
  92   48   87 1

#	End of record

