#	Name: ASD01884758
#	Creating user name:	WinNT
#	Creation time:	15. 06. 2019 19:48

#	Modifying user name:	WinNT
#	Modification time:	15. 06. 2019 19:48

#	Program:	/corina/corina34_cracker 3.40 0067  02.08.2006

@<TRIPOS>MOLECULE
ASD01884758
  51   53    0    0    0
SMALL
NO_CHARGES


@<TRIPOS>ATOM
   1 C1            -0.0168     1.3885     0.0097 C.2     
   2 C2             0.0021    -0.0041     0.0020 C.2     
   3 C3            -1.2123    -0.6978     0.0104 C.2     
   4 C4            -2.3880    -0.0131     0.0257 C.2     
   5 N5            -2.4099     1.3439     0.0332 N.am    
   6 C6            -1.2679     2.0572     0.0312 C.2     
   7 O7            -1.3090     3.2759     0.0382 O.2     
   8 C8            -3.6967     2.0439     0.0498 C.3     
   9 C9             1.2064     2.1331     0.0020 C.1     
  10 N10            2.1767     2.7237    -0.0041 N.1     
  11 C11           -4.1304     2.2798     1.4980 C.3     
  12 C12           -5.4743     3.0108     1.5153 C.3     
  13 C13           -6.5530     2.1093     0.9115 C.3     
  14 C14           -5.8480     3.3572     2.9579 C.3     
  15 O15           -1.2181    -2.0587     0.0027 O.3     
  16 C16           -2.4940    -2.7022     0.0119 C.3     
  17 C17           -2.3028    -4.1970     0.0015 C.2     
  18 C18           -2.1803    -5.0729     1.1161 C.2     
  19 N19           -2.0311    -6.2756     0.6190 N.2     
  20 O20           -2.0446    -6.2586    -0.5899 O.3     
  21 C21           -2.2138    -5.0181    -1.0693 C.2     
  22 C22           -2.2808    -4.6154    -2.5200 C.3     
  23 C23           -2.2141    -4.6992     2.5522 C.ar    
  24 C24           -2.7924    -5.5579     3.4846 C.ar    
  25 C25           -2.8208    -5.2056     4.8188 C.ar    
  26 C26           -2.2765    -4.0026     5.2308 C.ar    
  27 C27           -1.7015    -3.1462     4.3093 C.ar    
  28 C28           -1.6626    -3.4911     2.9734 C.ar    
  29 H29            0.9397    -0.5398    -0.0105 H       
  30 H30           -3.3199    -0.5589     0.0317 H       
  31 H31           -3.5958     3.0020    -0.4599 H       
  32 H32           -4.4462     1.4384    -0.4599 H       
  33 H33           -4.2313     1.3216     2.0077 H       
  34 H34           -3.3809     2.8853     2.0076 H       
  35 H35           -5.3971     3.9271     0.9299 H       
  36 H36           -6.6303     1.1930     1.4968 H       
  37 H37           -7.5105     2.6301     0.9238 H       
  38 H38           -6.2869     1.8625    -0.1163 H       
  39 H39           -5.0795     3.9995     3.3881 H       
  40 H40           -6.8054     3.8780     2.9703 H       
  41 H41           -5.9252     2.4410     3.5433 H       
  42 H42           -3.0407    -2.4121     0.9092 H       
  43 H43           -3.0587    -2.4019    -0.8707 H       
  44 H44           -2.1689    -5.4993    -3.1479 H       
  45 H45           -3.2432    -4.1454    -2.7225 H       
  46 H46           -1.4789    -3.9103    -2.7387 H       
  47 H47           -3.2180    -6.4972     3.1639 H       
  48 H48           -3.2691    -5.8703     5.5424 H       
  49 H49           -2.3008    -3.7309     6.2758 H       
  50 H50           -1.2786    -2.2078     4.6362 H       
  51 H51           -1.2132    -2.8218     2.2547 H       
@<TRIPOS>BOND
   1    1    2 2
   2    1    9 1
   3    1    6 1
   4    2    3 1
   5    2   29 1
   6    3    4 2
   7    3   15 1
   8    4    5 1
   9    4   30 1
  10    5    8 1
  11    5    6 am
  12    6    7 2
  13    8   11 1
  14    8   31 1
  15    8   32 1
  16    9   10 3
  17   11   12 1
  18   11   33 1
  19   11   34 1
  20   12   13 1
  21   12   14 1
  22   12   35 1
  23   13   36 1
  24   13   37 1
  25   13   38 1
  26   14   39 1
  27   14   40 1
  28   14   41 1
  29   15   16 1
  30   16   17 1
  31   16   42 1
  32   16   43 1
  33   17   18 1
  34   17   21 2
  35   18   19 2
  36   18   23 1
  37   19   20 1
  38   20   21 1
  39   21   22 1
  40   22   44 1
  41   22   45 1
  42   22   46 1
  43   23   24 ar
  44   23   28 ar
  45   24   25 ar
  46   24   47 1
  47   25   26 ar
  48   25   48 1
  49   26   27 ar
  50   26   49 1
  51   27   28 ar
  52   27   50 1
  53   28   51 1

#	End of record

