#	Name: ASD01915854
#	Creating user name:	WinNT
#	Creation time:	15. 06. 2019 20:06

#	Modifying user name:	WinNT
#	Modification time:	15. 06. 2019 20:06

#	Program:	/corina/corina34_cracker 3.40 0067  02.08.2006

@<TRIPOS>MOLECULE
ASD01915854
  41   44    0    0    0
SMALL
NO_CHARGES


@<TRIPOS>ATOM
   1 C1            -0.0043     1.4631     0.2176 C.2     
   2 N2             0.0615     0.1099    -0.0288 N.pl3   
   3 C3            -1.1510    -0.6743    -0.2923 C.3     
   4 C4            -2.3298    -0.0462     0.4494 C.3     
   5 N5            -2.4044     1.3988     0.2636 N.am    
   6 C6            -1.2917     2.1721     0.2677 C.2     
   7 C7             1.2784     1.9003     0.3937 C.2     
   8 C8             2.0745     0.7558     0.2522 C.2     
   9 N9             1.2813    -0.2615     0.0091 N.2     
  10 C10            3.5768     0.7024     0.3593 C.3     
  11 O11            4.0818     2.0113     0.6311 O.3     
  12 C12            5.4296     2.1389     0.7584 C.ar    
  13 O13           -1.3543     3.3861     0.3109 O.2     
  14 C14            5.9867     3.3813     1.0223 C.ar    
  15 C15            6.2467     1.0256     0.6299 C.ar    
  16 C16            7.6159     1.1551     0.7592 C.ar    
  17 C17            8.1735     2.3986     1.0171 C.ar    
  18 C18            7.3559     3.5109     1.1516 C.ar    
  19 C19           -3.6492     1.9979     0.0771 C.ar    
  20 C20           -4.8076     1.2633     0.3043 C.ar    
  21 C21           -6.0370     1.8690     0.1158 C.ar    
  22 C22           -6.0657     3.1965    -0.2959 C.ar    
  23 C23           -4.8736     3.8660    -0.5029 C.ar    
  24 N24           -3.7166     3.2618    -0.3092 N.ar    
  25 O25            9.5213     2.5261     1.1448 O.3     
  26 F26           -7.2452     3.8255    -0.4921 F       
  27 H27           -1.3557    -0.6791    -1.3629 H       
  28 H28           -1.0056    -1.6970     0.0555 H       
  29 H29           -3.2540    -0.4961     0.0868 H       
  30 H30           -2.2304    -0.2598     1.5136 H       
  31 H31            1.6071     2.9088     0.5973 H       
  32 H32            3.8596     0.0287     1.1682 H       
  33 H33            3.9953     0.3391    -0.5793 H       
  34 H34            5.3501     4.2475     1.1264 H       
  35 H35            5.8125     0.0573     0.4291 H       
  36 H36            8.2521     0.2881     0.6599 H       
  37 H37            7.7901     4.4792     1.3521 H       
  38 H38           -4.7485     0.2332     0.6235 H       
  39 H39           -6.9535     1.3230     0.2843 H       
  40 H40           -4.8897     4.8973    -0.8231 H       
  41 H41            9.9792     2.7125     0.3138 H       
@<TRIPOS>BOND
   1    1    2 1
   2    1    7 2
   3    1    6 1
   4    2    3 1
   5    2    9 1
   6    3    4 1
   7    3   27 1
   8    3   28 1
   9    4    5 1
  10    4   29 1
  11    4   30 1
  12    5    6 am
  13    5   19 1
  14    6   13 2
  15    7    8 1
  16    7   31 1
  17    8    9 2
  18    8   10 1
  19   10   11 1
  20   10   32 1
  21   10   33 1
  22   11   12 1
  23   12   14 ar
  24   12   15 ar
  25   14   18 ar
  26   14   34 1
  27   15   16 ar
  28   15   35 1
  29   16   17 ar
  30   16   36 1
  31   17   18 ar
  32   17   25 1
  33   18   37 1
  34   19   20 ar
  35   19   24 ar
  36   20   21 ar
  37   20   38 1
  38   21   22 ar
  39   21   39 1
  40   22   23 ar
  41   22   26 1
  42   23   24 ar
  43   23   40 1
  44   25   41 1

#	End of record

