#	Name: ASD01140356
#	Creating user name:	WinNT
#	Creation time:	15. 06. 2019 19:00

#	Modifying user name:	WinNT
#	Modification time:	15. 06. 2019 19:00

#	Program:	/corina/corina34_cracker 3.40 0067  02.08.2006

@<TRIPOS>MOLECULE
ASD01140356
  29   32    0    0    0
SMALL
NO_CHARGES


@<TRIPOS>ATOM
   1 N1            -0.0165     1.3641     0.0095 N.pl3   
   2 C2             0.0021    -0.0041     0.0020 C.2     
   3 C3             1.2440    -0.8627    -0.0465 C.3     
   4 N4             1.9826    -0.4789    -1.2555 N.pl3   
   5 C5             2.4123     0.7683    -1.5429 C.2     
   6 C6             2.2380     1.9848    -0.7241 C.ar    
   7 C7             1.0752     2.2369     0.0038 C.ar    
   8 C8             3.2890     2.9093    -0.6866 C.ar    
   9 C9             3.1785     4.0581     0.0670 C.ar    
  10 C10            2.0248     4.3035     0.7927 C.ar    
  11 C11            0.9799     3.4017     0.7610 C.ar    
  12 N12            2.3734    -1.3039    -2.3139 N.2     
  13 C13            3.0044    -0.5403    -3.1707 C.2     
  14 N14            3.0296     0.7074    -2.7098 N.2     
  15 C15           -1.3261     1.7348     0.0355 C.2     
  16 N16           -2.0646     0.6583     0.0555 N.2     
  17 C17           -1.2722    -0.4259     0.0357 C.2     
  18 C18            3.6074    -1.0021    -4.4723 C.3     
  19 Cl19          -1.8015    -2.0792     0.0516 Cl      
  20 Br20           4.6039     5.3000     0.1104 Br      
  21 H21            1.8563    -0.6816     0.8368 H       
  22 H22            0.9666    -1.9156    -0.0986 H       
  23 H23            4.1906     2.7212    -1.2506 H       
  24 H24            1.9419     5.2032     1.3843 H       
  25 H25            0.0830     3.5998     1.3291 H       
  26 H26           -1.6931     2.7506     0.0393 H       
  27 H27            2.8653    -0.9188    -5.2663 H       
  28 H28            4.4696    -0.3806    -4.7141 H       
  29 H29            3.9235    -2.0410    -4.3779 H       
@<TRIPOS>BOND
   1    1    2 1
   2    1    7 1
   3    1   15 1
   4    2    3 1
   5    2   17 2
   6    3    4 1
   7    3   21 1
   8    3   22 1
   9    4    5 1
  10    4   12 1
  11    5    6 1
  12    5   14 2
  13    6    7 ar
  14    6    8 ar
  15    7   11 ar
  16    8    9 ar
  17    8   23 1
  18    9   10 ar
  19    9   20 1
  20   10   11 ar
  21   10   24 1
  22   11   25 1
  23   12   13 2
  24   13   14 1
  25   13   18 1
  26   15   16 2
  27   15   26 1
  28   16   17 1
  29   17   19 1
  30   18   27 1
  31   18   28 1
  32   18   29 1

#	End of record

