#	Name: ASD02198560
#	Creating user name:	WinNT
#	Creation time:	15. 06. 2019 20:19

#	Modifying user name:	WinNT
#	Modification time:	15. 06. 2019 20:19

#	Program:	/corina/corina34_cracker 3.40 0067  02.08.2006

@<TRIPOS>MOLECULE
ASD02198560
  51   55    0    0    0
SMALL
NO_CHARGES


@<TRIPOS>ATOM
   1 C1             0.0072     1.5095     0.1333 C.2     
   2 C2             0.0744     0.1696    -0.0950 C.2     
   3 N3            -1.0524    -0.5607    -0.2643 N.pl3   
   4 N4            -2.2304    -0.0573    -0.2229 N.2     
   5 C5            -2.4379     1.2255    -0.0099 C.2     
   6 C6            -1.2792     2.1065     0.1922 C.2     
   7 C7            -0.9251    -1.9329    -0.4963 C.ar    
   8 C8            -1.3886    -3.8600    -1.8523 C.ar    
   9 C9            -0.6721    -4.6556    -0.9561 C.ar    
  10 C10           -0.0886    -4.0788     0.1733 C.ar    
  11 C11           -0.2165    -2.7252     0.3993 C.ar    
  12 C12           -3.8111     1.7683     0.0307 C.2     
  13 N13           -4.3726     2.4808     1.0527 N.pl3   
  14 N14           -5.6847     2.7989     0.6805 N.2     
  15 C15           -5.9159     2.3058    -0.5100 C.2     
  16 C16           -4.7650     1.6565    -0.9570 C.2     
  17 C17           -3.7480     2.8301     2.2567 C.ar    
  18 C18           -2.9538     1.9056     2.9223 C.ar    
  19 O19           -1.4171     3.3044     0.3935 O.2     
  20 C20           -3.9169     4.1035     2.7844 C.ar    
  21 C21           -3.2993     4.4449     3.9716 C.ar    
  22 C22           -2.5129     3.5205     4.6344 C.ar    
  23 C23           -2.3388     2.2532     4.1091 C.ar    
  24 C24           -1.5134    -2.5054    -1.6217 C.ar    
  25 F25           -2.2066    -1.7340    -2.4875 F       
  26 O26            1.1346     2.2506     0.3050 O.3     
  27 C27            2.3829     1.5587     0.2344 C.3     
  28 C28           -0.5407    -6.0619    -1.1923 C.1     
  29 C29           -0.4329    -7.2148    -1.3859 C.1     
  30 C30           -0.2978    -8.6603    -1.6287 C.3     
  31 C31            0.4995    -9.4764    -0.6093 C.3     
  32 C32           -1.0235    -9.6083    -0.6717 C.3     
  33 H33            1.0377    -0.3163    -0.1419 H       
  34 H34           -1.8408    -4.3036    -2.7271 H       
  35 H35            0.4657    -4.6924     0.8680 H       
  36 H36            0.2348    -2.2795     1.2734 H       
  37 H37           -6.8430     2.3911    -1.0574 H       
  38 H38           -4.6455     1.1510    -1.9039 H       
  39 H39           -2.8174     0.9157     2.5125 H       
  40 H40           -4.5304     4.8261     2.2669 H       
  41 H41           -3.4303     5.4351     4.3825 H       
  42 H42           -2.0307     3.7901     5.5625 H       
  43 H43           -1.7241     1.5335     4.6291 H       
  44 H44            3.1989     2.2648     0.3878 H       
  45 H45            2.4168     0.7907     1.0071 H       
  46 H46            2.4851     1.0927    -0.7457 H       
  47 H47           -0.2289    -8.9569    -2.6753 H       
  48 H48            1.0927   -10.3100    -0.9852 H       
  49 H49            0.9241    -8.9428     0.2411 H       
  50 H50           -1.6009    -9.1615     0.1376 H       
  51 H51           -1.4323   -10.5286    -1.0888 H       
@<TRIPOS>BOND
   1    1    2 2
   2    1   26 1
   3    1    6 1
   4    2    3 1
   5    2   33 1
   6    3    4 1
   7    3    7 1
   8    4    5 2
   9    5    6 1
  10    5   12 1
  11    6   19 2
  12    7   24 ar
  13    7   11 ar
  14    8    9 ar
  15    8   24 ar
  16    8   34 1
  17    9   10 ar
  18    9   28 1
  19   10   11 ar
  20   10   35 1
  21   11   36 1
  22   12   13 1
  23   12   16 2
  24   13   14 1
  25   13   17 1
  26   14   15 2
  27   15   16 1
  28   15   37 1
  29   16   38 1
  30   17   20 ar
  31   17   18 ar
  32   18   23 ar
  33   18   39 1
  34   20   21 ar
  35   20   40 1
  36   21   22 ar
  37   21   41 1
  38   22   23 ar
  39   22   42 1
  40   23   43 1
  41   24   25 1
  42   26   27 1
  43   27   44 1
  44   27   45 1
  45   27   46 1
  46   28   29 3
  47   29   30 1
  48   30   31 1
  49   30   32 1
  50   30   47 1
  51   31   32 1
  52   31   48 1
  53   31   49 1
  54   32   50 1
  55   32   51 1

#	End of record

