#	Name: ASD01910537
#	Creating user name:	WinNT
#	Creation time:	15. 06. 2019 19:56

#	Modifying user name:	WinNT
#	Modification time:	15. 06. 2019 19:56

#	Program:	/corina/corina34_cracker 3.40 0067  02.08.2006

@<TRIPOS>MOLECULE
ASD01910537
  44   47    0    0    0
SMALL
NO_CHARGES


@<TRIPOS>ATOM
   1 O1             0.0874     0.2022     0.1081 O.3     
   2 C2             0.1321    -1.0082     0.6902 C.2     
   3 N3             1.4134    -1.2914     0.8746 N.2     
   4 C4             2.0869    -0.2360     0.3941 C.2     
   5 N5             1.2146     0.6209    -0.0499 N.2     
   6 C6            -1.0145    -1.8516     1.0516 C.2     
   7 C7            -2.3331    -1.5469     0.8554 C.2     
   8 C8            -3.0855    -2.6226     1.3427 C.2     
   9 C9            -2.2216    -3.5488     1.8196 C.2     
  10 N10           -0.9543    -3.0917     1.6424 N.pl3   
  11 C11            3.9743     1.1710     1.1796 C.3     
  12 C12            3.5848    -0.0717     0.3730 C.3     
  13 C13            4.0602     0.0934    -1.0722 C.3     
  14 C14            5.5846     0.2273    -1.0974 C.3     
  15 C15            5.9968     1.4735    -0.3075 C.3     
  16 N16            5.4205     1.3903     1.0415 N.am    
  17 C17            6.2037     1.5124     2.1315 C.2     
  18 C18            7.6667     1.6482     1.9784 C.ar    
  19 O19            5.7062     1.5108     3.2407 O.2     
  20 C20            8.1943     2.5993     1.1024 C.ar    
  21 C21            9.5602     2.7221     0.9637 C.ar    
  22 C22           10.4099     1.9034     1.6919 C.ar    
  23 C23            9.8914     0.9571     2.5627 C.ar    
  24 C24            8.5272     0.8298     2.7133 C.ar    
  25 F25           11.7479     2.0279     1.5522 F       
  26 N26           -4.5619    -2.7277     1.3376 N.pl3   
  27 O27           -5.2353    -1.8226     0.8784 O.2     
  28 O28           -5.1034    -3.7194     1.7924 O.2     
  29 H29           -2.7220    -0.6440     0.4081 H       
  30 H30           -2.4938    -4.4951     2.2633 H       
  31 H31           -0.1432    -3.5592     1.8960 H       
  32 H32            3.4351     2.0381     0.7980 H       
  33 H33            3.7267     1.0173     2.2299 H       
  34 H34            4.0540    -0.9522     0.8120 H       
  35 H35            3.7627    -0.7789    -1.6543 H       
  36 H36            3.6099     0.9878    -1.5027 H       
  37 H37            6.0349    -0.6560    -0.6446 H       
  38 H38            5.9245     0.3214    -2.1288 H       
  39 H39            7.0836     1.5194    -0.2384 H       
  40 H40            5.6225     2.3652    -0.8103 H       
  41 H41            7.5333     3.2372     0.5345 H       
  42 H42            9.9693     3.4571     0.2863 H       
  43 H43           10.5576     0.3217     3.1272 H       
  44 H44            8.1243     0.0927     3.3920 H       
@<TRIPOS>BOND
   1    1    2 1
   2    1    5 1
   3    2    3 2
   4    2    6 1
   5    3    4 1
   6    4    5 2
   7    4   12 1
   8    6    7 2
   9    6   10 1
  10    7    8 1
  11    7   29 1
  12    8    9 2
  13    8   26 1
  14    9   10 1
  15    9   30 1
  16   10   31 1
  17   11   12 1
  18   11   16 1
  19   11   32 1
  20   11   33 1
  21   12   13 1
  22   12   34 1
  23   13   14 1
  24   13   35 1
  25   13   36 1
  26   14   15 1
  27   14   37 1
  28   14   38 1
  29   15   16 1
  30   15   39 1
  31   15   40 1
  32   16   17 am
  33   17   18 1
  34   17   19 2
  35   18   20 ar
  36   18   24 ar
  37   20   21 ar
  38   20   41 1
  39   21   22 ar
  40   21   42 1
  41   22   23 ar
  42   22   25 1
  43   23   24 ar
  44   23   43 1
  45   24   44 1
  46   26   27 2
  47   26   28 2

#	End of record

