#	Name: ASD08070355
#	Creating user name:	WinNT
#	Creation time:	15. 06. 2019 21:14

#	Modifying user name:	WinNT
#	Modification time:	15. 06. 2019 21:14

#	Program:	/corina/corina34_cracker 3.40 0067  02.08.2006

@<TRIPOS>MOLECULE
ASD08070355
  35   38    0    0    0
SMALL
NO_CHARGES


@<TRIPOS>ATOM
   1 C1             0.0597     1.4170     0.4268 C.3     
   2 N2             0.0451    -0.0325     0.2055 N.am    
   3 C3             1.4329    -0.4404    -0.0351 C.3     
   4 C4             2.2941     0.7947     0.0447 C.ar    
   5 C5             3.6599     0.9654    -0.1044 C.ar    
   6 C6             4.2184     2.2230     0.0177 C.ar    
   7 C7             3.4124     3.3131     0.2887 C.ar    
   8 C8             2.0495     3.1435     0.4372 C.ar    
   9 C9             1.4892     1.8834     0.3154 C.ar    
  10 C10           -1.0367    -0.8362     0.2208 C.2     
  11 O11           -2.1386    -0.3684     0.4344 O.2     
  12 N12           -0.8972    -2.1583    -0.0006 N.am    
  13 C13           -2.0057    -3.0083     0.1116 C.ar    
  14 C14           -3.2621    -2.5660    -0.2799 C.ar    
  15 C15           -4.3570    -3.4062    -0.1688 C.ar    
  16 C16           -4.1951    -4.6946     0.3361 C.ar    
  17 C17           -2.9400    -5.1318     0.7259 C.ar    
  18 C18           -1.8466    -4.2943     0.6088 C.ar    
  19 C19           -6.2444    -4.5410    -0.5390 C.3     
  20 O20           -5.6739    -3.2205    -0.4766 O.3     
  21 O21           -5.4118    -5.3156     0.3442 O.3     
  22 H22           -0.5504     1.9122    -0.3286 H       
  23 H23           -0.3262     1.6429     1.4208 H       
  24 H24            1.7442    -1.1575     0.7245 H       
  25 H25            1.5201    -0.8882    -1.0250 H       
  26 H26            4.2897     0.1140    -0.3162 H       
  27 H27            5.2841     2.3545    -0.0982 H       
  28 H28            3.8481     4.2966     0.3847 H       
  29 H29            1.4201     3.9952     0.6493 H       
  30 H30           -0.0296    -2.5215    -0.2377 H       
  31 H31           -3.3855    -1.5668    -0.6707 H       
  32 H32           -2.8146    -6.1305     1.1172 H       
  33 H33           -0.8682    -4.6393     0.9090 H       
  34 H34           -7.2745    -4.5304    -0.1830 H       
  35 H35           -6.1933    -4.9326    -1.5549 H       
@<TRIPOS>BOND
   1    1    2 1
   2    1    9 1
   3    1   22 1
   4    1   23 1
   5    2    3 1
   6    2   10 am
   7    3    4 1
   8    3   24 1
   9    3   25 1
  10    4    5 ar
  11    4    9 ar
  12    5    6 ar
  13    5   26 1
  14    6    7 ar
  15    6   27 1
  16    7    8 ar
  17    7   28 1
  18    8    9 ar
  19    8   29 1
  20   10   11 2
  21   10   12 am
  22   12   13 1
  23   12   30 1
  24   13   14 ar
  25   13   18 ar
  26   14   15 ar
  27   14   31 1
  28   15   16 ar
  29   15   20 1
  30   16   17 ar
  31   16   21 1
  32   17   18 ar
  33   17   32 1
  34   18   33 1
  35   19   20 1
  36   19   21 1
  37   19   34 1
  38   19   35 1

#	End of record

