#	Name: ASD00990076
#	Creating user name:	WinNT
#	Creation time:	15. 06. 2019 18:54

#	Modifying user name:	WinNT
#	Modification time:	15. 06. 2019 18:54

#	Program:	/corina/corina34_cracker 3.40 0067  02.08.2006

@<TRIPOS>MOLECULE
ASD00990076
  69   72    0    0    0
SMALL
NO_CHARGES


@<TRIPOS>ATOM
   1 C1            -0.4750     0.8005    -1.3047 C.ar    
   2 C2            -0.3325    -0.5729    -1.3386 C.ar    
   3 C3             0.9186    -1.1430    -1.1627 C.ar    
   4 C4             2.0284    -0.3251    -0.9520 C.ar    
   5 C5             1.8790     1.0525    -0.9194 C.ar    
   6 C6             0.6275     1.6125    -1.0955 C.ar    
   7 O7             1.3554    -2.4264    -1.1459 O.3     
   8 C8             2.6810    -2.4382    -0.9351 C.2     
   9 N9             3.1271    -1.1724    -0.8118 N.am    
  10 Cl10           0.4373     3.3376    -1.0557 Cl      
  11 C11            4.5131    -0.7617    -0.5739 C.3     
  12 C12            5.2120    -0.5636    -1.8943 C.2     
  13 N13            6.5044    -0.1822    -1.9221 N.am    
  14 C14            7.1838     0.0103    -3.2057 C.3     
  15 O15            4.6115    -0.7475    -2.9318 O.2     
  16 C16            7.2297     0.0398    -0.6688 C.3     
  17 C17            6.9649     1.4229    -3.6830 C.2     
  18 N18            7.8344     2.4522    -3.4959 N.pl3   
  19 C19            7.2749     3.5730    -4.0762 C.ar    
  20 C20            6.0431     3.1591    -4.6105 C.ar    
  21 N21            5.9193     1.8344    -4.3389 N.2     
  22 C22            7.6761     4.8954    -4.2092 C.ar    
  23 C23            6.8616     5.7933    -4.8655 C.ar    
  24 C24            5.6448     5.3841    -5.3926 C.ar    
  25 C25            5.2338     4.0870    -5.2714 C.ar    
  26 C26            9.1251     2.3842    -2.8062 C.3     
  27 C27           10.2401     2.1655    -3.8309 C.3     
  28 O28            3.3721    -3.4362    -0.8661 O.2     
  29 O29           11.4990     2.0991    -3.1581 O.3     
  30 Si30          12.7710     1.8670    -4.1523 Si      
  31 C31           14.3394     1.8005    -3.1489 C.3     
  32 C32           12.5546     0.2621    -5.0732 C.3     
  33 C33           12.8721     3.2731    -5.3702 C.3     
  34 C34           14.2564     0.6457    -2.1487 C.3     
  35 C35           15.5326     1.5827    -4.0815 C.3     
  36 C36           14.5171     3.1186    -2.3926 C.3     
  37 H37           -1.4498     1.2435    -1.4464 H       
  38 H38           -1.1951    -1.2019    -1.5017 H       
  39 H39            2.7379     1.6867    -0.7566 H       
  40 H40            4.5239     0.1730    -0.0133 H       
  41 H41            5.0280    -1.5341    -0.0025 H       
  42 H42            8.2516    -0.1701    -3.0822 H       
  43 H43            6.7798    -0.6877    -3.9389 H       
  44 H44            7.6265    -0.9082    -0.3057 H       
  45 H45            8.0513     0.7348    -0.8427 H       
  46 H46            6.5511     0.4582     0.0745 H       
  47 H47            8.6218     5.2192    -3.8002 H       
  48 H48            7.1724     6.8224    -4.9698 H       
  49 H49            5.0165     6.0983    -5.9040 H       
  50 H50            4.2851     3.7792    -5.6855 H       
  51 H51            9.3010     3.3176    -2.2715 H       
  52 H52            9.1153     1.5559    -2.0977 H       
  53 H53           10.0642     1.2321    -4.3656 H       
  54 H54           10.2500     2.9938    -4.5394 H       
  55 H55           11.6370     0.3009    -5.6603 H       
  56 H56           13.4046     0.1069    -5.7376 H       
  57 H57           12.4954    -0.5606    -4.3607 H       
  58 H58           12.9987     4.2121    -4.8313 H       
  59 H59           13.7222     3.1179    -6.0346 H       
  60 H60           11.9545     3.3120    -5.9572 H       
  61 H61           14.1297    -0.2933    -2.6875 H       
  62 H62           15.1740     0.6069    -1.5617 H       
  63 H63           13.4063     0.8009    -1.4843 H       
  64 H64           15.5917     2.4054    -4.7941 H       
  65 H65           16.4502     1.5439    -3.4944 H       
  66 H66           15.4059     0.6437    -4.6203 H       
  67 H67           13.6670     3.2737    -1.7282 H       
  68 H68           15.4347     3.0797    -1.8055 H       
  69 H69           14.5762     3.9413    -3.1051 H       
@<TRIPOS>BOND
   1    1    2 ar
   2    1    6 ar
   3    1   37 1
   4    2    3 ar
   5    2   38 1
   6    3    4 ar
   7    3    7 1
   8    4    5 ar
   9    4    9 1
  10    5    6 ar
  11    5   39 1
  12    6   10 1
  13    7    8 1
  14    8    9 am
  15    8   28 2
  16    9   11 1
  17   11   12 1
  18   11   40 1
  19   11   41 1
  20   12   13 am
  21   12   15 2
  22   13   14 1
  23   13   16 1
  24   14   17 1
  25   14   42 1
  26   14   43 1
  27   16   44 1
  28   16   45 1
  29   16   46 1
  30   17   18 1
  31   17   21 2
  32   18   19 1
  33   18   26 1
  34   19   20 ar
  35   19   22 ar
  36   20   21 1
  37   20   25 ar
  38   22   23 ar
  39   22   47 1
  40   23   24 ar
  41   23   48 1
  42   24   25 ar
  43   24   49 1
  44   25   50 1
  45   26   27 1
  46   26   51 1
  47   26   52 1
  48   27   29 1
  49   27   53 1
  50   27   54 1
  51   29   30 1
  52   30   31 1
  53   30   32 1
  54   30   33 1
  55   31   34 1
  56   31   35 1
  57   31   36 1
  58   32   55 1
  59   32   56 1
  60   32   57 1
  61   33   58 1
  62   33   59 1
  63   33   60 1
  64   34   61 1
  65   34   62 1
  66   34   63 1
  67   35   64 1
  68   35   65 1
  69   35   66 1
  70   36   67 1
  71   36   68 1
  72   36   69 1

#	End of record

