#	Name: ASD08150371
#	Creating user name:	WinNT
#	Creation time:	15. 06. 2019 21:15

#	Modifying user name:	WinNT
#	Modification time:	15. 06. 2019 21:15

#	Program:	/corina/corina34_cracker 3.40 0067  02.08.2006

@<TRIPOS>MOLECULE
ASD08150371
  38   40    0    0    0
SMALL
NO_CHARGES


@<TRIPOS>ATOM
   1 N1             0.1368     1.4144    -0.4419 N.2     
   2 C2             0.0303     0.1208    -0.4771 C.2     
   3 N3             1.0208    -0.7220    -0.0772 N.am    
   4 C4             2.1941    -0.2338     0.3883 C.2     
   5 C5             2.3464     1.2260     0.4409 C.ar    
   6 C6             3.5163     1.8299     0.9049 C.ar    
   7 C7             3.6042     3.2078     0.9327 C.ar    
   8 C8             2.5416     3.9907     0.5043 C.ar    
   9 C9             1.3790     3.4134     0.0436 C.ar    
  10 C10            1.2642     2.0229     0.0046 C.ar    
  11 O11            3.0887    -0.9762     0.7499 O.2     
  12 C12            0.8242    -2.1069    -0.1474 C.ar    
  13 C13            1.1916    -2.8048    -1.2903 C.ar    
  14 C14            0.9964    -4.1704    -1.3565 C.ar    
  15 C15            0.4357    -4.8429    -0.2861 C.ar    
  16 C16            0.0688    -4.1508     0.8535 C.ar    
  17 C17            0.2667    -2.7859     0.9280 C.ar    
  18 F18            4.5538     1.0727     1.3237 F       
  19 C19           -1.2557    -0.4774    -0.9864 C.3     
  20 C20           -1.2122    -0.5554    -2.5138 C.3     
  21 C21           -2.4623    -1.2754    -3.0235 C.3     
  22 N22           -2.3856     0.3645    -0.5711 N.3     
  23 H23            4.5070     3.6798     1.2911 H       
  24 H24            2.6273     5.0669     0.5328 H       
  25 H25            0.5596     4.0344    -0.2869 H       
  26 H26            1.6292    -2.2801    -2.1267 H       
  27 H27            1.2817    -4.7137    -2.2452 H       
  28 H28            0.2838    -5.9107    -0.3404 H       
  29 H29           -0.3692    -4.6787     1.6876 H       
  30 H30           -0.0160    -2.2466     1.8200 H       
  31 H31           -1.3785    -1.4792    -0.5748 H       
  32 H32           -1.1789     0.4522    -2.9283 H       
  33 H33           -0.3240    -1.1056    -2.8244 H       
  34 H34           -2.4957    -2.2830    -2.6091 H       
  35 H35           -3.3505    -0.7252    -2.7130 H       
  36 H36           -2.4313    -1.3309    -4.1117 H       
  37 H37           -2.2951     1.2992    -0.9403 H       
  38 H38           -3.2644    -0.0489    -0.8449 H       
@<TRIPOS>BOND
   1    1    2 2
   2    1   10 1
   3    2    3 1
   4    2   19 1
   5    3    4 am
   6    3   12 1
   7    4    5 1
   8    4   11 2
   9    5    6 ar
  10    5   10 ar
  11    6    7 ar
  12    6   18 1
  13    7    8 ar
  14    7   23 1
  15    8    9 ar
  16    8   24 1
  17    9   10 ar
  18    9   25 1
  19   12   13 ar
  20   12   17 ar
  21   13   14 ar
  22   13   26 1
  23   14   15 ar
  24   14   27 1
  25   15   16 ar
  26   15   28 1
  27   16   17 ar
  28   16   29 1
  29   17   30 1
  30   19   20 1
  31   19   22 1
  32   19   31 1
  33   20   21 1
  34   20   32 1
  35   20   33 1
  36   21   34 1
  37   21   35 1
  38   21   36 1
  39   22   37 1
  40   22   38 1

#	End of record

