#	Name: ASD08070685
#	Creating user name:	WinNT
#	Creation time:	15. 06. 2019 21:15

#	Modifying user name:	WinNT
#	Modification time:	15. 06. 2019 21:15

#	Program:	/corina/corina34_cracker 3.40 0067  02.08.2006

@<TRIPOS>MOLECULE
ASD08070685
  41   41    0    0    0
SMALL
NO_CHARGES


@<TRIPOS>ATOM
   1 C1            -0.0168     1.3902     0.0097 C.ar    
   2 C2             0.0021    -0.0041     0.0020 C.ar    
   3 N3             1.1281     2.0669     0.0024 N.ar    
   4 N4             1.1562    -0.6463    -0.0125 N.ar    
   5 C5             2.2907     0.0310    -0.0196 C.ar    
   6 C6             2.2753     1.4182    -0.0120 C.ar    
   7 C7            -1.3085     2.1156     0.0197 C.2     
   8 O8            -2.3536     1.4956     0.0213 O.2     
   9 N9            -1.3245     3.4633     0.0271 N.am    
  10 C10           -2.6019     4.1806     0.0371 C.3     
  11 C11           -2.4035     5.5669     0.6533 C.3     
  12 C12           -2.0106     5.4195     2.1246 C.3     
  13 C13           -1.8122     6.8058     2.7409 C.3     
  14 C14           -3.1149     4.3285    -1.3967 C.3     
  15 C15           -3.4316     2.9459    -1.9703 C.3     
  16 C16           -3.9446     3.0938    -3.4041 C.3     
  17 C17            3.5727     2.1848    -0.0208 C.3     
  18 C18            3.6053    -0.7056    -0.0362 C.3     
  19 H19           -0.9252    -0.5578     0.0083 H       
  20 H20           -0.4903     3.9582     0.0259 H       
  21 H21           -3.3281     3.6213     0.6269 H       
  22 H22           -1.6136     6.0931     0.1173 H       
  23 H23           -3.3319     6.1333     0.5802 H       
  24 H24           -2.8004     4.8933     2.6607 H       
  25 H25           -1.0822     4.8531     2.1978 H       
  26 H26           -1.0223     7.3320     2.2049 H       
  27 H27           -2.7406     7.3722     2.6677 H       
  28 H28           -1.5323     6.7008     3.7891 H       
  29 H29           -4.0184     4.9382    -1.3983 H       
  30 H30           -2.3512     4.8093    -2.0081 H       
  31 H31           -2.5280     2.3362    -1.9687 H       
  32 H32           -4.1953     2.4652    -1.3589 H       
  33 H33           -4.8482     3.7035    -3.4056 H       
  34 H34           -3.1809     3.5745    -4.0154 H       
  35 H35           -4.1703     2.1088    -3.8127 H       
  36 H36            3.8955     2.3644     1.0047 H       
  37 H37            4.3332     1.6060    -0.5450 H       
  38 H38            3.4279     3.1384    -0.5285 H       
  39 H39            3.9124    -0.8777    -1.0677 H       
  40 H40            4.3622    -0.1096     0.4737 H       
  41 H41            3.4921    -1.6624     0.4736 H       
@<TRIPOS>BOND
   1    1    2 ar
   2    1    3 ar
   3    1    7 1
   4    2    4 ar
   5    2   19 1
   6    3    6 ar
   7    4    5 ar
   8    5    6 ar
   9    5   18 1
  10    6   17 1
  11    7    8 2
  12    7    9 am
  13    9   10 1
  14    9   20 1
  15   10   11 1
  16   10   14 1
  17   10   21 1
  18   11   12 1
  19   11   22 1
  20   11   23 1
  21   12   13 1
  22   12   24 1
  23   12   25 1
  24   13   26 1
  25   13   27 1
  26   13   28 1
  27   14   15 1
  28   14   29 1
  29   14   30 1
  30   15   16 1
  31   15   31 1
  32   15   32 1
  33   16   33 1
  34   16   34 1
  35   16   35 1
  36   17   36 1
  37   17   37 1
  38   17   38 1
  39   18   39 1
  40   18   40 1
  41   18   41 1

#	End of record

