#	Name: ASD03080089
#	Creating user name:	WinNT
#	Creation time:	15. 06. 2019 20:26

#	Modifying user name:	WinNT
#	Modification time:	15. 06. 2019 20:26

#	Program:	/corina/corina34_cracker 3.40 0067  02.08.2006

@<TRIPOS>MOLECULE
ASD03080089
  26   28    0    0    0
SMALL
NO_CHARGES


@<TRIPOS>ATOM
   1 Cl1            0.0021    -0.0041     0.0020 Cl      
   2 C2            -0.0215     1.7317     0.0116 C.ar    
   3 C3             1.1700     2.4377     0.0040 C.ar    
   4 C4             1.1576     3.8168     0.0115 C.ar    
   5 C5            -0.0590     4.5010     0.0263 C.ar    
   6 C6            -1.2567     3.7839     0.0335 C.ar    
   7 C7            -1.2317     2.4051     0.0210 C.ar    
   8 C8            -0.0791     5.9789     0.0349 C.2     
   9 O9             0.9879     6.7930     0.0295 O.3     
  10 N10            0.6247     7.9500     0.0391 N.2     
  11 C11           -0.6820     8.0164     0.0515 C.2     
  12 N12           -1.1497     6.7507     0.0436 N.2     
  13 C13           -1.4992     9.2556     0.0664 C.ar    
  14 C14           -0.8854    10.5106     0.0679 C.ar    
  15 C15           -1.6919    11.6360     0.0821 C.ar    
  16 C16           -3.0660    11.4832     0.0943 C.ar    
  17 N17           -3.6168    10.2845     0.0926 N.ar    
  18 C18           -2.8905     9.1858     0.0735 C.ar    
  19 H19            2.1107     1.9073    -0.0075 H       
  20 H20            2.0874     4.3663     0.0063 H       
  21 H21           -2.2010     4.3079     0.0449 H       
  22 H22           -2.1576     1.8492     0.0265 H       
  23 H23            0.1908    10.6007     0.0585 H       
  24 H24           -1.2524    12.6225     0.0840 H       
  25 H25           -3.6982    12.3587     0.1058 H       
  26 H26           -3.3780     8.2220     0.0724 H       
@<TRIPOS>BOND
   1    1    2 1
   2    2    3 ar
   3    2    7 ar
   4    3    4 ar
   5    3   19 1
   6    4    5 ar
   7    4   20 1
   8    5    6 ar
   9    5    8 1
  10    6    7 ar
  11    6   21 1
  12    7   22 1
  13    8    9 1
  14    8   12 2
  15    9   10 1
  16   10   11 2
  17   11   12 1
  18   11   13 1
  19   13   14 ar
  20   13   18 ar
  21   14   15 ar
  22   14   23 1
  23   15   16 ar
  24   15   24 1
  25   16   17 ar
  26   16   25 1
  27   17   18 ar
  28   18   26 1

#	End of record

