#	Name: ASD05872037
#	Creating user name:	WinNT
#	Creation time:	15. 06. 2019 21:04

#	Modifying user name:	WinNT
#	Modification time:	15. 06. 2019 21:04

#	Program:	/corina/corina34_cracker 3.40 0067  02.08.2006

@<TRIPOS>MOLECULE
ASD05872037
  63   66    0    0    0
SMALL
NO_CHARGES


@<TRIPOS>ATOM
   1 C1             0.1320     1.7781     0.2062 C.ar    
   2 C2             0.3471     0.3952     0.1495 C.ar    
   3 C3            -0.7060    -0.4550    -0.1028 C.ar    
   4 C4            -1.9815     0.0489    -0.3018 C.ar    
   5 C5            -2.2119     1.4132    -0.2492 C.ar    
   6 C6            -1.1608     2.2871     0.0098 C.ar    
   7 C7             1.2512     2.6890     0.4753 C.2     
   8 C8             2.6367     2.1371     0.6917 C.3     
   9 O9             1.0609     3.8860     0.5236 O.2     
  10 S10            3.7880     3.4997     0.9982 S.3     
  11 C11            5.2845     2.5941     1.2103 C.ar    
  12 C12            6.4812     3.2827     1.4783 C.ar    
  13 C13            7.6669     2.5411     1.6452 C.ar    
  14 C14            7.5903     1.1358     1.5338 C.ar    
  15 C15            6.3546     0.5432     1.2653 C.ar    
  16 N16            5.2678     1.2709     1.1209 N.ar    
  17 C17            8.9525     3.2138     1.9279 C.ar    
  18 C18            9.5983     3.0048     3.1484 C.ar    
  19 C19           10.7967     3.6332     3.4080 C.ar    
  20 C20           11.3624     4.4742     2.4577 C.ar    
  21 C21           10.7227     4.6849     1.2425 C.ar    
  22 C22            9.5271     4.0553     0.9730 C.ar    
  23 O23           12.5434     5.0921     2.7174 O.3     
  24 C24           13.0686     5.9431     1.6966 C.3     
  25 C25           14.3740     6.5367     2.1599 C.ar    
  26 C26           15.5624     5.8798     1.9012 C.ar    
  27 C27           16.7598     6.4243     2.3262 C.ar    
  28 C28           16.7688     7.6259     3.0095 C.ar    
  29 C29           15.5804     8.2833     3.2674 C.ar    
  30 C30           14.3834     7.7409     2.8386 C.ar    
  31 O31           -1.3828     3.6247     0.0626 O.3     
  32 S32           -1.3797     4.3068    -1.2980 S.o2    
  33 O33           -1.2614     5.7355    -1.0507 O.co2   
  34 O34           -0.2356     3.7825    -2.0275 O.co2   
  35 O35           -2.6395     3.9665    -1.9407 O.co2   
  36 O36           -3.4670     1.8988    -0.4458 O.3     
  37 S37           -4.3219     1.9325     0.8130 S.o2    
  38 O38           -5.6945     2.1483     0.3823 O.co2   
  39 O39           -4.1518     0.6459     1.4701 O.co2   
  40 O40           -3.8262     3.0311     1.6274 O.co2   
  41 N41            6.2648    -0.9294     1.1463 N.pl3   
  42 O42            7.2634    -1.6134     1.2824 O.2     
  43 O43            5.1924    -1.4573     0.9124 O.2     
  44 C44            6.4940     4.7110     1.5791 C.1     
  45 N45            6.5041     5.8442     1.6590 N.1     
  46 C46            8.7630     0.3296     1.6934 C.1     
  47 N47            9.6933    -0.3100     1.8200 N.1     
  48 H48            1.3388    -0.0040     0.3033 H       
  49 H49           -0.5371    -1.5208    -0.1463 H       
  50 H50           -2.8006    -0.6266    -0.4994 H       
  51 H51            2.6306     1.4664     1.5509 H       
  52 H52            2.9517     1.5879    -0.1956 H       
  53 H53            9.1589     2.3518     3.8879 H       
  54 H54           11.2968     3.4722     4.3516 H       
  55 H55           11.1653     5.3396     0.5065 H       
  56 H56            9.0306     4.2193     0.0280 H       
  57 H57           13.2352     5.3622     0.7895 H       
  58 H58           12.3583     6.7437     1.4900 H       
  59 H59           15.5554     4.9410     1.3673 H       
  60 H60           17.6883     5.9107     2.1247 H       
  61 H61           17.7042     8.0510     3.3422 H       
  62 H62           15.5874     9.2219     3.8015 H       
  63 H63           13.4549     8.2545     3.0401 H       
@<TRIPOS>BOND
   1    1    2 ar
   2    1    7 1
   3    1    6 ar
   4    2    3 ar
   5    2   48 1
   6    3    4 ar
   7    3   49 1
   8    4    5 ar
   9    4   50 1
  10    5    6 ar
  11    5   36 1
  12    6   31 1
  13    7    8 1
  14    7    9 2
  15    8   10 1
  16    8   51 1
  17    8   52 1
  18   10   11 1
  19   11   12 ar
  20   11   16 ar
  21   12   13 ar
  22   12   44 1
  23   13   14 ar
  24   13   17 1
  25   14   15 ar
  26   14   46 1
  27   15   16 ar
  28   15   41 1
  29   17   18 ar
  30   17   22 ar
  31   18   19 ar
  32   18   53 1
  33   19   20 ar
  34   19   54 1
  35   20   21 ar
  36   20   23 1
  37   21   22 ar
  38   21   55 1
  39   22   56 1
  40   23   24 1
  41   24   25 1
  42   24   57 1
  43   24   58 1
  44   25   26 ar
  45   25   30 ar
  46   26   27 ar
  47   26   59 1
  48   27   28 ar
  49   27   60 1
  50   28   29 ar
  51   28   61 1
  52   29   30 ar
  53   29   62 1
  54   30   63 1
  55   31   32 1
  56   32   33 ar
  57   32   34 ar
  58   32   35 ar
  59   36   37 1
  60   37   38 ar
  61   37   39 ar
  62   37   40 ar
  63   41   42 2
  64   41   43 2
  65   44   45 3
  66   46   47 3

#	End of record

