#	Name: ASD01870567
#	Creating user name:	WinNT
#	Creation time:	15. 06. 2019 19:39

#	Modifying user name:	WinNT
#	Modification time:	15. 06. 2019 19:39

#	Program:	/corina/corina34_cracker 3.40 0067  02.08.2006

@<TRIPOS>MOLECULE
ASD01870567
  43   45    0    0    0
SMALL
NO_CHARGES


@<TRIPOS>ATOM
   1 C1            -0.3200     1.4582     0.0861 C.ar    
   2 C2            -0.3180     0.0738     0.1964 C.ar    
   3 C3             0.8775    -0.6161     0.2088 C.ar    
   4 C4             2.0792     0.0739     0.1105 C.ar    
   5 C5             2.0782     1.4583     0.0001 C.ar    
   6 C6             0.8820     2.1491    -0.0124 C.ar    
   7 N7             3.2912    -0.6262     0.1231 N.am    
   8 C8             4.3299    -0.1887    -0.6159 C.2     
   9 C9             5.6344    -0.8498    -0.5108 C.2     
  10 O10            5.9276    -1.9042     0.2781 O.3     
  11 C11            6.7641    -0.5098    -1.1986 C.2     
  12 C12            7.7684    -1.4018    -0.7913 C.2     
  13 C13            7.2139    -2.2389     0.1131 C.2     
  14 C14            6.9052     0.6068    -2.2008 C.3     
  15 O15            4.1850     0.7552    -1.3706 O.2     
  16 Cl16           0.8800     3.8795    -0.1509 Cl      
  17 N17           -1.5331     2.1574     0.0682 N.am    
  18 C18           -2.6159     1.6133    -0.5216 C.2     
  19 C19           -3.8693     2.3914    -0.6284 C.ar    
  20 O20           -2.5625     0.4830    -0.9657 O.2     
  21 C21           -4.4552     2.9349     0.5111 C.ar    
  22 C22           -5.6265     3.6620     0.4064 C.ar    
  23 C23           -6.2233     3.8544    -0.8266 C.ar    
  24 C24           -5.6559     3.3221    -1.9694 C.ar    
  25 C25           -4.4737     2.5917    -1.8840 C.ar    
  26 C26           -3.8626     2.0208    -3.1029 C.2     
  27 O27           -2.7780     1.4777    -3.0413 O.2     
  28 O28           -4.5086     2.1030    -4.2821 O.3     
  29 H29           -1.2519    -0.4631     0.2729 H       
  30 H30            0.8787    -1.6926     0.2954 H       
  31 H31            3.0125     1.9947    -0.0757 H       
  32 H32            3.3836    -1.4263     0.6637 H       
  33 H33            8.7912    -1.4180    -1.1378 H       
  34 H34            7.7236    -3.0460     0.6182 H       
  35 H35            7.2052     1.5203    -1.6872 H       
  36 H36            7.6619     0.3396    -2.9384 H       
  37 H37            5.9507     0.7683    -2.7016 H       
  38 H38           -1.5940     3.0334     0.4802 H       
  39 H39           -3.9950     2.7885     1.4772 H       
  40 H40           -6.0785     4.0819     1.2928 H       
  41 H41           -7.1384     4.4237    -0.8969 H       
  42 H42           -6.1274     3.4763    -2.9287 H       
  43 H43           -4.0693     1.7153    -5.0514 H       
@<TRIPOS>BOND
   1    1    2 ar
   2    1    6 ar
   3    1   17 1
   4    2    3 ar
   5    2   29 1
   6    3    4 ar
   7    3   30 1
   8    4    5 ar
   9    4    7 1
  10    5    6 ar
  11    5   31 1
  12    6   16 1
  13    7    8 am
  14    7   32 1
  15    8    9 1
  16    8   15 2
  17    9   11 2
  18    9   10 1
  19   10   13 1
  20   11   12 1
  21   11   14 1
  22   12   13 2
  23   12   33 1
  24   13   34 1
  25   14   35 1
  26   14   36 1
  27   14   37 1
  28   17   18 am
  29   17   38 1
  30   18   19 1
  31   18   20 2
  32   19   21 ar
  33   19   25 ar
  34   21   22 ar
  35   21   39 1
  36   22   23 ar
  37   22   40 1
  38   23   24 ar
  39   23   41 1
  40   24   25 ar
  41   24   42 1
  42   25   26 1
  43   26   27 2
  44   26   28 1
  45   28   43 1

#	End of record

