#	Name: ASD05170067
#	Creating user name:	WinNT
#	Creation time:	15. 06. 2019 20:57

#	Modifying user name:	WinNT
#	Modification time:	15. 06. 2019 20:57

#	Program:	/corina/corina34_cracker 3.40 0067  02.08.2006

@<TRIPOS>MOLECULE
ASD05170067
  47   50    0    0    0
SMALL
NO_CHARGES


@<TRIPOS>ATOM
   1 C1            -0.2242     1.4645    -1.1239 C.ar    
   2 C2            -0.2356     0.0855    -1.2773 C.ar    
   3 C3             0.9611    -0.6047    -1.1408 C.ar    
   4 C4             2.1168     0.0949    -0.8590 C.ar    
   5 N5             2.0983     1.4075    -0.7178 N.ar    
   6 C6             0.9817     2.1033    -0.8399 C.ar    
   7 O7             1.0092     3.4521    -0.6875 O.3     
   8 C8             2.2760     4.0465    -0.3975 C.3     
   9 C9             2.1118     5.5385    -0.2634 C.2     
  10 C10            0.9118     6.2507    -0.3928 C.2     
  11 N11            3.0667     6.3996     0.0008 N.2     
  12 C12            1.2525     7.5584    -0.1940 C.2     
  13 C13            0.4481     8.7898    -0.1954 C.2     
  14 N14            2.6065     7.5878     0.0580 N.pl3   
  15 C15            3.2968     8.8493     0.3527 C.3     
  16 C16            2.5839     9.9936    -0.3665 C.3     
  17 N17            1.1358     9.9573    -0.1760 N.am    
  18 O18           -0.7679     8.7617    -0.2133 O.2     
  19 C19            0.4439    11.1550     0.0364 C.ar    
  20 C20           -0.8258    12.5923     1.4762 C.ar    
  21 C21           -0.1439    11.4094     1.2686 C.ar    
  22 C22            0.3492    12.0935    -0.9829 C.ar    
  23 C23           -0.3337    13.2751    -0.7710 C.ar    
  24 C24           -0.9232    13.5246     0.4569 C.ar    
  25 F25           -1.5907    14.6811     0.6621 F       
  26 C26            3.2764     9.1026     1.8614 C.3     
  27 O27           -1.3716     2.1828    -1.2543 O.3     
  28 C28           -2.5637     1.4530    -1.5517 C.3     
  29 H29           -1.1539    -0.4386    -1.4973 H       
  30 H30            0.9874    -1.6785    -1.2536 H       
  31 H31            3.0496    -0.4389    -0.7522 H       
  32 H32            2.6638     3.6383     0.5358 H       
  33 H33            2.9731     3.8289    -1.2067 H       
  34 H34           -0.0694     5.8520    -0.6039 H       
  35 H35            4.3287     8.7889     0.0069 H       
  36 H36            2.9654    10.9411     0.0141 H       
  37 H37            2.8026     9.9306    -1.4325 H       
  38 H38           -1.2834    12.7904     2.4342 H       
  39 H39           -0.0682    10.6826     2.0638 H       
  40 H40            0.8094    11.8996    -1.9405 H       
  41 H41           -0.4076    14.0052    -1.5634 H       
  42 H42            3.7816     8.2840     2.3741 H       
  43 H43            3.7892    10.0394     2.0795 H       
  44 H44            2.2440     9.1647     2.2055 H       
  45 H45           -2.7573     0.7336    -0.7561 H       
  46 H46           -3.4031     2.1441    -1.6290 H       
  47 H47           -2.4399     0.9246    -2.4970 H       
@<TRIPOS>BOND
   1    1    2 ar
   2    1    6 ar
   3    1   27 1
   4    2    3 ar
   5    2   29 1
   6    3    4 ar
   7    3   30 1
   8    4    5 ar
   9    4   31 1
  10    5    6 ar
  11    6    7 1
  12    7    8 1
  13    8    9 1
  14    8   32 1
  15    8   33 1
  16    9   11 2
  17    9   10 1
  18   10   12 2
  19   10   34 1
  20   11   14 1
  21   12   14 1
  22   12   13 1
  23   13   17 am
  24   13   18 2
  25   14   15 1
  26   15   16 1
  27   15   26 1
  28   15   35 1
  29   16   17 1
  30   16   36 1
  31   16   37 1
  32   17   19 1
  33   19   22 ar
  34   19   21 ar
  35   20   21 ar
  36   20   24 ar
  37   20   38 1
  38   21   39 1
  39   22   23 ar
  40   22   40 1
  41   23   24 ar
  42   23   41 1
  43   24   25 1
  44   26   42 1
  45   26   43 1
  46   26   44 1
  47   27   28 1
  48   28   45 1
  49   28   46 1
  50   28   47 1

#	End of record

