#	Name: ASD01914233
#	Creating user name:	WinNT
#	Creation time:	15. 06. 2019 20:03

#	Modifying user name:	WinNT
#	Modification time:	15. 06. 2019 20:03

#	Program:	/corina/corina34_cracker 3.40 0067  02.08.2006

@<TRIPOS>MOLECULE
ASD01914233
  32   34    0    0    0
SMALL
NO_CHARGES


@<TRIPOS>ATOM
   1 C1            -0.0171     1.4070     0.0098 C.2     
   2 C2             0.0021    -0.0041     0.0020 C.2     
   3 C3             1.1981    -0.6550    -0.0129 C.2     
   4 C4             2.3935     0.0854    -0.0203 C.2     
   5 C5             2.3581     1.4360    -0.0123 C.2     
   6 N6             1.1638     2.1010     0.0022 N.pl3   
   7 N7            -1.0100     2.2858     0.0293 N.2     
   8 C8            -0.5022     3.5201     0.0288 C.2     
   9 C9             0.8464     3.4314     0.0129 C.2     
  10 C10           -1.2992     4.7989     0.0477 C.3     
  11 C11           -2.2889     4.8004    -1.1191 C.3     
  12 C12           -3.0674     6.0495    -1.1006 C.1     
  13 C13           -3.6883     7.0458    -1.0859 C.1     
  14 C14           -4.4457     8.2610    -1.0679 C.ar    
  15 C15           -5.4165     8.4862    -2.0445 C.ar    
  16 C16           -6.1398     9.6652    -2.0135 C.ar    
  17 C17           -5.8699    10.5822    -1.0070 C.ar    
  18 C18           -4.8939    10.2949    -0.0707 C.ar    
  19 N19           -4.2225     9.1625    -0.1187 N.ar    
  20 F20           -1.1546    -0.7021     0.0098 F       
  21 F21            3.5823    -0.5563    -0.0351 F       
  22 H22            1.2284    -1.7346    -0.0186 H       
  23 H23            3.2819     1.9954    -0.0178 H       
  24 H24            1.5431     4.2567     0.0107 H       
  25 H25           -1.8458     4.8725     0.9879 H       
  26 H26           -0.6240     5.6493    -0.0475 H       
  27 H27           -1.7422     4.7268    -2.0593 H       
  28 H28           -2.9641     3.9500    -1.0239 H       
  29 H29           -5.6004     7.7509    -2.8139 H       
  30 H30           -6.8973     9.8677    -2.7562 H       
  31 H31           -6.4172    11.5119    -0.9559 H       
  32 H32           -4.6818    11.0070     0.7131 H       
@<TRIPOS>BOND
   1    1    2 1
   2    1    6 1
   3    1    7 2
   4    2    3 2
   5    2   20 1
   6    3    4 1
   7    3   22 1
   8    4    5 2
   9    4   21 1
  10    5    6 1
  11    5   23 1
  12    6    9 1
  13    7    8 1
  14    8    9 2
  15    8   10 1
  16    9   24 1
  17   10   11 1
  18   10   25 1
  19   10   26 1
  20   11   12 1
  21   11   27 1
  22   11   28 1
  23   12   13 3
  24   13   14 1
  25   14   15 ar
  26   14   19 ar
  27   15   16 ar
  28   15   29 1
  29   16   17 ar
  30   16   30 1
  31   17   18 ar
  32   17   31 1
  33   18   19 ar
  34   18   32 1

#	End of record

