#	Name: ASD08170572
#	Creating user name:	WinNT
#	Creation time:	15. 06. 2019 21:17

#	Modifying user name:	WinNT
#	Modification time:	15. 06. 2019 21:17

#	Program:	/corina/corina34_cracker 3.40 0067  02.08.2006

@<TRIPOS>MOLECULE
ASD08170572
  72   75    0    0    0
SMALL
NO_CHARGES


@<TRIPOS>ATOM
   1 N1            -0.0159     1.3150     0.0224 N.ar    
   2 C2             0.0017    -0.0034     0.0124 C.ar    
   3 C3            -1.2931    -0.7743     0.0243 C.3     
   4 C4            -4.2984    -0.6746     2.4294 C.3     
   5 C5            -5.5932    -1.4455     2.4412 C.2     
   6 N6            -5.8033    -2.5767     3.0361 N.2     
   7 N7            -6.9625    -3.0651     2.9277 N.2     
   8 C8            -7.8359    -2.3975     2.2358 C.2     
   9 S9            -7.0970    -0.9657     1.6538 S.3     
  10 N10           -9.1540    -2.7791     2.0098 N.am    
  11 C11           -3.4530    -1.1158     1.2328 C.3     
  12 C12           -2.1384    -0.3331     1.2208 C.3     
  13 C13            1.2122    -0.6808    -0.0095 C.ar    
  14 C14            2.3785     0.0690    -0.0202 C.ar    
  15 C15            2.2616     1.4575    -0.0083 C.ar    
  16 N16            1.0600     2.0148     0.0126 N.ar    
  17 N17            3.4043     2.2567    -0.0179 N.am    
  18 C18           -9.6205    -3.9317     2.5297 C.2     
  19 O19           -8.8908    -4.6361     3.1947 O.2     
  20 C20          -11.0488    -4.3451     2.2847 C.3     
  21 C21          -11.3154    -5.6609     2.9693 C.ar    
  22 C22          -11.7761    -5.6805     4.2725 C.ar    
  23 C23          -12.0217    -6.8863     4.9035 C.ar    
  24 C24          -11.3499    -8.0574     2.9227 C.ar    
  25 C25          -11.1044    -6.8466     2.2920 C.ar    
  26 C26          -11.8070    -8.0745     4.2327 C.ar    
  27 C27            3.2889     3.5963    -0.1113 C.2     
  28 C28            4.5141     4.4673    -0.0047 C.3     
  29 O29            2.1992     4.1007    -0.2812 O.2     
  30 C30            4.1152     5.9141    -0.1410 C.ar    
  31 C31            3.7797     6.6473     0.9819 C.ar    
  32 C32            3.4138     7.9744     0.8569 C.ar    
  33 C33            3.3838     8.5686    -0.3908 C.ar    
  34 C34            3.7202     7.8357    -1.5136 C.ar    
  35 C35            4.0903     6.5097    -1.3882 C.ar    
  36 O36          -11.1436    -9.2249     2.2585 O.3     
  37 C37          -11.4173   -10.4334     2.9704 C.3     
  38 C38          -11.1284   -11.6340     2.0671 C.3     
  39 C39          -11.4215   -12.9279     2.8293 C.3     
  40 O40          -11.1517   -14.0493     1.9856 O.3     
  41 H41           -1.8401    -0.5802    -0.8983 H       
  42 H42           -1.0805    -1.8405     0.1031 H       
  43 H43           -4.5110     0.3916     2.3505 H       
  44 H44           -3.7514    -0.8687     3.3520 H       
  45 H45           -9.7376    -2.2157     1.4779 H       
  46 H46           -3.2404    -2.1820     1.3116 H       
  47 H47           -4.0000    -0.9216     0.3102 H       
  48 H48           -1.5915    -0.5273     2.1434 H       
  49 H49           -2.3511     0.7331     1.1420 H       
  50 H50            1.2451    -1.7603    -0.0176 H       
  51 H51            3.3472    -0.4082    -0.0369 H       
  52 H52            4.2821     1.8485     0.0427 H       
  53 H53          -11.7206    -3.5852     2.6839 H       
  54 H54          -11.2174    -4.4524     1.2132 H       
  55 H55          -11.9443    -4.7526     4.7989 H       
  56 H56          -12.3812    -6.8990     5.9218 H       
  57 H57          -10.7483    -6.8307     1.2725 H       
  58 H58          -11.9986    -9.0159     4.7260 H       
  59 H59            4.9880     4.3107     0.9643 H       
  60 H60            5.2148     4.2073    -0.7981 H       
  61 H61            3.8032     6.1831     1.9568 H       
  62 H62            3.1510     8.5470     1.7341 H       
  63 H63            3.0972     9.6053    -0.4886 H       
  64 H64            3.6964     8.2998    -2.4885 H       
  65 H65            4.3531     5.9371    -2.2654 H       
  66 H66          -10.7843   -10.4846     3.8563 H       
  67 H67          -12.4649   -10.4486     3.2710 H       
  68 H68          -11.7614   -11.5828     1.1812 H       
  69 H69          -10.0808   -11.6188     1.7665 H       
  70 H70          -10.7885   -12.9791     3.7151 H       
  71 H71          -12.4691   -12.9431     3.1299 H       
  72 H72          -11.3159   -14.9052     2.4045 H       
@<TRIPOS>BOND
   1    1    2 ar
   2    1   16 ar
   3    2    3 1
   4    2   13 ar
   5    3   12 1
   6    3   41 1
   7    3   42 1
   8    4    5 1
   9    4   11 1
  10    4   43 1
  11    4   44 1
  12    5    6 2
  13    5    9 1
  14    6    7 1
  15    7    8 2
  16    8    9 1
  17    8   10 1
  18   10   18 am
  19   10   45 1
  20   11   12 1
  21   11   46 1
  22   11   47 1
  23   12   48 1
  24   12   49 1
  25   13   14 ar
  26   13   50 1
  27   14   15 ar
  28   14   51 1
  29   15   16 ar
  30   15   17 1
  31   17   27 am
  32   17   52 1
  33   18   19 2
  34   18   20 1
  35   20   21 1
  36   20   53 1
  37   20   54 1
  38   21   22 ar
  39   21   25 ar
  40   22   23 ar
  41   22   55 1
  42   23   26 ar
  43   23   56 1
  44   24   25 ar
  45   24   36 1
  46   24   26 ar
  47   25   57 1
  48   26   58 1
  49   27   28 1
  50   27   29 2
  51   28   30 1
  52   28   59 1
  53   28   60 1
  54   30   31 ar
  55   30   35 ar
  56   31   32 ar
  57   31   61 1
  58   32   33 ar
  59   32   62 1
  60   33   34 ar
  61   33   63 1
  62   34   35 ar
  63   34   64 1
  64   35   65 1
  65   36   37 1
  66   37   38 1
  67   37   66 1
  68   37   67 1
  69   38   39 1
  70   38   68 1
  71   38   69 1
  72   39   40 1
  73   39   70 1
  74   39   71 1
  75   40   72 1

#	End of record

