#	Name: ASD01028709
#	Creating user name:	WinNT
#	Creation time:	15. 06. 2019 18:58

#	Modifying user name:	WinNT
#	Modification time:	15. 06. 2019 18:58

#	Program:	/corina/corina34_cracker 3.40 0067  02.08.2006

@<TRIPOS>MOLECULE
ASD01028709
  52   56    0    0    0
SMALL
NO_CHARGES


@<TRIPOS>ATOM
   1 C1            -0.0166     1.3706     0.0096 C.2     
   2 N2             0.0021    -0.0041     0.0020 N.pl3   
   3 N3             1.2195    -0.6876    -0.0128 N.2     
   4 C4             2.3555    -0.0259    -0.0197 C.2     
   5 C5             2.3695     1.3850    -0.0118 C.2     
   6 C6             1.2004     2.0782     0.0018 C.2     
   7 N7            -1.2880     1.7361     0.0184 N.2     
   8 N8            -2.0323     0.6856     0.0167 N.2     
   9 C9            -1.2913    -0.3943     0.0118 C.2     
  10 C10            3.6381    -0.7716    -0.0355 C.ar    
  11 C11            4.8480    -0.0807    -0.0372 C.ar    
  12 C12           -1.7913    -1.8160     0.0087 C.3     
  13 C13           -3.2982    -1.8185     0.0226 C.ar    
  14 C14           -3.9968    -1.8131    -1.1828 C.ar    
  15 C15           -5.3577    -1.8151    -1.2060 C.ar    
  16 C16           -6.0762    -1.8232     0.0021 C.ar    
  17 C17           -5.3634    -1.8292     1.2272 C.ar    
  18 C18           -3.9592    -1.8316     1.2130 C.ar    
  19 N19           -7.4131    -1.8249     0.0083 N.ar    
  20 C20           -8.0905    -1.8321     1.1298 C.ar    
  21 C21           -7.4513    -1.8378     2.3737 C.ar    
  22 C22           -6.0827    -1.8374     2.4363 C.ar    
  23 C23            3.6363    -2.1649    -0.0430 C.ar    
  24 C24            4.8338    -2.8556    -0.0578 C.ar    
  25 C25            6.0341    -2.1646    -0.0652 C.ar    
  26 C26            6.0408    -0.7796    -0.0520 C.ar    
  27 F27            4.8332    -4.2066    -0.0646 F       
  28 F28            7.2145    -0.1107    -0.0597 F       
  29 F29           -1.3344    -2.4685    -1.1413 F       
  30 O30           -8.1858    -1.8439     3.5172 O.3     
  31 C31           -9.6077    -1.8440     3.3750 C.3     
  32 F32           -1.3134    -2.4808     1.1431 F       
  33 C33          -10.2587    -1.8512     4.7596 C.3     
  34 O34           -9.9468    -0.6333     5.4390 O.3     
  35 C35          -10.5098    -0.5378     6.7489 C.3     
  36 H36            3.3105     1.9150    -0.0173 H       
  37 H37            1.2051     3.1581     0.0077 H       
  38 H38            4.8541     0.9992    -0.0273 H       
  39 H39           -3.4496    -1.8068    -2.1139 H       
  40 H40           -5.8836    -1.8102    -2.1493 H       
  41 H41           -3.4067    -1.8365     2.1409 H       
  42 H42           -9.1699    -1.8332     1.0927 H       
  43 H43           -5.5704    -1.8421     3.3870 H       
  44 H44            2.7007    -2.7045    -0.0369 H       
  45 H45            6.9678    -2.7074    -0.0767 H       
  46 H46           -9.9186    -0.9515     2.8320 H       
  47 H47           -9.9176    -2.7314     2.8232 H       
  48 H48          -11.3397    -1.9408     4.6524 H       
  49 H49           -9.8794    -2.6957     5.3350 H       
  50 H50          -10.2271     0.4146     7.1973 H       
  51 H51          -11.5960    -0.6002     6.6829 H       
  52 H52          -10.1357    -1.3551     7.3656 H       
@<TRIPOS>BOND
   1    1    2 1
   2    1    6 1
   3    1    7 2
   4    2    3 1
   5    2    9 1
   6    3    4 2
   7    4    5 1
   8    4   10 1
   9    5    6 2
  10    5   36 1
  11    6   37 1
  12    7    8 1
  13    8    9 2
  14    9   12 1
  15   10   23 ar
  16   10   11 ar
  17   11   26 ar
  18   11   38 1
  19   12   13 1
  20   12   29 1
  21   12   32 1
  22   13   14 ar
  23   13   18 ar
  24   14   15 ar
  25   14   39 1
  26   15   16 ar
  27   15   40 1
  28   16   17 ar
  29   16   19 ar
  30   17   18 ar
  31   17   22 ar
  32   18   41 1
  33   19   20 ar
  34   20   21 ar
  35   20   42 1
  36   21   22 ar
  37   21   30 1
  38   22   43 1
  39   23   24 ar
  40   23   44 1
  41   24   25 ar
  42   24   27 1
  43   25   26 ar
  44   25   45 1
  45   26   28 1
  46   30   31 1
  47   31   33 1
  48   31   46 1
  49   31   47 1
  50   33   34 1
  51   33   48 1
  52   33   49 1
  53   34   35 1
  54   35   50 1
  55   35   51 1
  56   35   52 1

#	End of record

