#	Name: ASD01883531
#	Creating user name:	WinNT
#	Creation time:	15. 06. 2019 19:46

#	Modifying user name:	WinNT
#	Modification time:	15. 06. 2019 19:46

#	Program:	/corina/corina34_cracker 3.40 0067  02.08.2006

@<TRIPOS>MOLECULE
ASD01883531
  50   53    0    0    0
SMALL
NO_CHARGES


@<TRIPOS>ATOM
   1 C1            -0.0269     1.4230     0.0327 C.2     
   2 C2            -0.9505     1.5229     1.0953 C.2     
   3 C3            -2.0888     0.7992     1.0638 C.2     
   4 N4            -2.3614    -0.0283     0.0201 N.am    
   5 C5            -1.5062    -0.1517    -1.0117 C.2     
   6 C6            -0.3157     0.5810    -1.0292 C.2     
   7 O7            -1.7732    -0.9020    -1.9378 O.2     
   8 N8             1.1447     2.1578     0.0484 N.pl3   
   9 C9             2.4476     1.4873     0.1553 C.3     
  10 C10            3.2208     2.0965     1.3290 C.3     
  11 C11            3.3078     3.6133     1.1450 C.3     
  12 C12            1.8982     4.2092     1.1339 C.3     
  13 C13            1.1103     3.6235    -0.0477 C.3     
  14 C14           -3.6071    -0.7993     0.0188 C.3     
  15 C15            4.0972     4.2124     2.2804 C.ar    
  16 C16            5.2582     4.9159     2.0194 C.ar    
  17 C17            5.9823     5.4654     3.0608 C.ar    
  18 C18            5.5452     5.3117     4.3632 C.ar    
  19 C19            4.3838     4.6089     4.6241 C.ar    
  20 C20            3.6573     4.0632     3.5823 C.ar    
  21 C21           -4.7091     0.0132    -0.6641 C.3     
  22 C22           -6.0634    -0.6676    -0.8715 C.3     
  23 C23           -5.9117     0.4273     0.1863 C.3     
  24 C24            0.6461     0.4480    -2.1818 C.3     
  25 F25            1.5593    -0.5768    -1.9112 F       
  26 F26           -0.0634     0.1443    -3.3486 F       
  27 F27            1.3354     1.6530    -2.3555 F       
  28 H28           -0.7465     2.1761     1.9309 H       
  29 H29           -2.7928     0.8781     1.8789 H       
  30 H30            2.2970     0.4220     0.3305 H       
  31 H31            3.0099     1.6320    -0.7672 H       
  32 H32            2.7028     1.8723     2.2615 H       
  33 H33            4.2258     1.6756     1.3603 H       
  34 H34            3.8039     3.8367     0.2005 H       
  35 H35            1.3927     3.9651     2.0682 H       
  36 H36            1.9618     5.2920     1.0262 H       
  37 H37            1.5649     3.9444    -0.9850 H       
  38 H38            0.0768     3.9673    -0.0040 H       
  39 H39           -3.4559    -1.7332    -0.5224 H       
  40 H40           -3.9002    -1.0178     1.0457 H       
  41 H41            5.5997     5.0360     1.0018 H       
  42 H42            6.8897     6.0144     2.8570 H       
  43 H43            6.1114     5.7404     5.1769 H       
  44 H44            4.0425     4.4886     5.6417 H       
  45 H45            2.7499     3.5141     3.7862 H       
  46 H46           -4.3725     0.7088    -1.4329 H       
  47 H47           -6.6180    -0.4197    -1.7765 H       
  48 H48           -6.1694    -1.6944    -0.5214 H       
  49 H49           -5.9178     0.1209     1.2323 H       
  50 H50           -6.3664     1.3956    -0.0228 H       
@<TRIPOS>BOND
   1    1    2 1
   2    1    8 1
   3    1    6 2
   4    2    3 2
   5    2   28 1
   6    3    4 1
   7    3   29 1
   8    4    5 am
   9    4   14 1
  10    5    6 1
  11    5    7 2
  12    6   24 1
  13    8    9 1
  14    8   13 1
  15    9   10 1
  16    9   30 1
  17    9   31 1
  18   10   11 1
  19   10   32 1
  20   10   33 1
  21   11   12 1
  22   11   15 1
  23   11   34 1
  24   12   13 1
  25   12   35 1
  26   12   36 1
  27   13   37 1
  28   13   38 1
  29   14   21 1
  30   14   39 1
  31   14   40 1
  32   15   16 ar
  33   15   20 ar
  34   16   17 ar
  35   16   41 1
  36   17   18 ar
  37   17   42 1
  38   18   19 ar
  39   18   43 1
  40   19   20 ar
  41   19   44 1
  42   20   45 1
  43   21   22 1
  44   21   23 1
  45   21   46 1
  46   22   23 1
  47   22   47 1
  48   22   48 1
  49   23   49 1
  50   23   50 1
  51   24   25 1
  52   24   26 1
  53   24   27 1

#	End of record

