#	Name: ASD01884180
#	Creating user name:	WinNT
#	Creation time:	15. 06. 2019 19:47

#	Modifying user name:	WinNT
#	Modification time:	15. 06. 2019 19:47

#	Program:	/corina/corina34_cracker 3.40 0067  02.08.2006

@<TRIPOS>MOLECULE
ASD01884180
  35   38    0    0    0
SMALL
NO_CHARGES


@<TRIPOS>ATOM
   1 C1            -0.0180     1.4770     0.0102 C.ar    
   2 C2             0.0021    -0.0041     0.0020 C.ar    
   3 C3            -1.1960    -0.7165     0.0096 C.ar    
   4 C4            -1.1733    -2.0949     0.0020 C.ar    
   5 C5             0.0642    -2.7607    -0.0134 C.ar    
   6 C6             1.2173    -1.9683    -0.0201 C.ar    
   7 N7             1.1614    -0.6514    -0.0180 N.ar    
   8 N8             0.3013    -4.1212    -0.0234 N.am    
   9 C9             1.5669    -4.5504    -0.0382 C.2     
  10 S10            2.5804    -3.0978    -0.0398 S.3     
  11 C11           -0.8114    -5.0741    -0.0175 C.3     
  12 C12           -1.2134    -5.3978    -1.4578 C.3     
  13 C13           -2.2856    -6.4687    -1.6683 C.3     
  14 O14            1.9466    -5.7066    -0.0478 O.2     
  15 C15           -2.6195    -4.9947    -1.9064 C.3     
  16 C16            1.1882     2.2013     0.0025 C.ar    
  17 C17            1.1536     3.5964     0.0099 C.ar    
  18 C18           -0.0580     4.2555     0.0245 C.ar    
  19 C19           -1.2449     3.5412     0.0325 C.ar    
  20 C20           -1.2306     2.1610     0.0196 C.ar    
  21 C21            2.4430     1.5116    -0.0122 C.1     
  22 N22            3.4385     0.9644    -0.0239 N.1     
  23 H23           -2.1391    -0.1903     0.0218 H       
  24 H24           -2.0958    -2.6565     0.0082 H       
  25 H25           -0.5034    -5.9893     0.4882 H       
  26 H26           -1.6610    -4.6374     0.5074 H       
  27 H27           -0.4126    -5.3357    -2.1946 H       
  28 H28           -2.1904    -7.1109    -2.5439 H       
  29 H29           -2.7047    -6.9427    -0.7807 H       
  30 H30           -3.2582    -4.4989    -1.1754 H       
  31 H31           -2.7440    -4.6672    -2.9386 H       
  32 H32            2.0750     4.1597     0.0045 H       
  33 H33           -0.0815     5.3352     0.0302 H       
  34 H34           -2.1877     4.0678     0.0443 H       
  35 H35           -2.1604     1.6115     0.0259 H       
@<TRIPOS>BOND
   1    1    2 1
   2    1   16 ar
   3    1   20 ar
   4    2    3 ar
   5    2    7 ar
   6    3    4 ar
   7    3   23 1
   8    4    5 ar
   9    4   24 1
  10    5    6 ar
  11    5    8 1
  12    6    7 ar
  13    6   10 1
  14    8    9 am
  15    8   11 1
  16    9   10 1
  17    9   14 2
  18   11   12 1
  19   11   25 1
  20   11   26 1
  21   12   13 1
  22   12   15 1
  23   12   27 1
  24   13   15 1
  25   13   28 1
  26   13   29 1
  27   15   30 1
  28   15   31 1
  29   16   17 ar
  30   16   21 1
  31   17   18 ar
  32   17   32 1
  33   18   19 ar
  34   18   33 1
  35   19   20 ar
  36   19   34 1
  37   20   35 1
  38   21   22 3

#	End of record

