#	Name: ASD05720052
#	Creating user name:	WinNT
#	Creation time:	15. 06. 2019 21:01

#	Modifying user name:	WinNT
#	Modification time:	15. 06. 2019 21:01

#	Program:	/corina/corina34_cracker 3.40 0067  02.08.2006

@<TRIPOS>MOLECULE
ASD05720052
  36   39    0    0    0
SMALL
NO_CHARGES


@<TRIPOS>ATOM
   1 O1            -0.0567     1.1199     0.1008 O.3     
   2 C2             0.1176    -0.2053     0.0472 C.2     
   3 N3             1.4024    -0.5809    -0.0155 N.am    
   4 C4             2.2506     0.6208    -0.0056 C.3     
   5 C5             1.2409     1.7820     0.0743 C.3     
   6 O6            -0.8047    -0.9962     0.0554 O.2     
   7 C7             3.6020    -3.3919    -0.3032 C.2     
   8 N8             3.1445    -2.1335    -0.2406 N.2     
   9 C9             1.8588    -1.8916    -0.0786 C.2     
  10 C10            0.9459    -2.9611     0.0311 C.2     
  11 C11            1.4019    -4.2321    -0.0314 C.2     
  12 N12            2.7405    -4.4539    -0.1999 N.pl3   
  13 N13            3.4985    -5.6264    -0.2998 N.2     
  14 C14            4.7622    -5.3030    -0.4566 C.2     
  15 C15            4.8755    -3.9200    -0.4706 C.2     
  16 Br16           6.4752    -2.9329    -0.6770 Br      
  17 C17            3.0713     0.7099    -1.2938 C.3     
  18 C18            4.0155     1.8814    -1.2078 C.ar    
  19 C19            5.2374     1.7394    -0.5774 C.ar    
  20 C20            6.1035     2.8140    -0.4985 C.ar    
  21 C21            5.7477     4.0303    -1.0505 C.ar    
  22 C22            4.5261     4.1721    -1.6818 C.ar    
  23 C23            3.6619     3.0963    -1.7644 C.ar    
  24 H24            2.9041     0.6210     0.8667 H       
  25 H25            1.3251     2.4227    -0.8035 H       
  26 H26            1.3939     2.3594     0.9861 H       
  27 H27           -0.1081    -2.7663     0.1641 H       
  28 H28            0.7168    -5.0629     0.0511 H       
  29 H29            5.5799    -6.0006    -0.5619 H       
  30 H30            3.6432    -0.2088    -1.4245 H       
  31 H31            2.4013     0.8448    -2.1429 H       
  32 H32            5.5154     0.7891    -0.1461 H       
  33 H33            7.0579     2.7032    -0.0053 H       
  34 H34            6.4240     4.8701    -0.9883 H       
  35 H35            4.2480     5.1225    -2.1127 H       
  36 H36            2.7090     3.2060    -2.2608 H       
@<TRIPOS>BOND
   1    1    2 1
   2    1    5 1
   3    2    3 am
   4    2    6 2
   5    3    4 1
   6    3    9 1
   7    4    5 1
   8    4   17 1
   9    4   24 1
  10    5   25 1
  11    5   26 1
  12    7    8 1
  13    7   12 1
  14    7   15 2
  15    8    9 2
  16    9   10 1
  17   10   11 2
  18   10   27 1
  19   11   12 1
  20   11   28 1
  21   12   13 1
  22   13   14 2
  23   14   15 1
  24   14   29 1
  25   15   16 1
  26   17   18 1
  27   17   30 1
  28   17   31 1
  29   18   19 ar
  30   18   23 ar
  31   19   20 ar
  32   19   32 1
  33   20   21 ar
  34   20   33 1
  35   21   22 ar
  36   21   34 1
  37   22   23 ar
  38   22   35 1
  39   23   36 1

#	End of record

