#	Name: ASD02562103
#	Creating user name:	WinNT
#	Creation time:	15. 06. 2019 20:25

#	Modifying user name:	WinNT
#	Modification time:	15. 06. 2019 20:25

#	Program:	/corina/corina34_cracker 3.40 0067  02.08.2006

@<TRIPOS>MOLECULE
ASD02562103
  55   59    0    0    0
SMALL
NO_CHARGES


@<TRIPOS>ATOM
   1 C1             0.0850     1.8412    -0.8018 C.ar    
   2 N2             0.5124     0.8968    -1.6239 N.ar    
   3 C3            -0.2166     0.5340    -2.6745 C.ar    
   4 C4            -1.4499     1.1664    -2.9031 C.ar    
   5 C5            -1.8640     2.1643    -2.0034 C.ar    
   6 N6            -1.0754     2.4607    -0.9766 N.ar    
   7 N7            -3.0706     2.8200    -2.1809 N.pl3   
   8 N8             0.8742     2.1917     0.2830 N.pl3   
   9 C9            -3.5216     3.7266    -1.2174 C.ar    
  10 C10            2.0688     1.5154     0.5232 C.ar    
  11 C11            3.2837     2.1779     0.3730 C.ar    
  12 C12           -4.2662     4.8354    -1.5985 C.ar    
  13 C13           -4.4145     5.5217     0.6951 C.ar    
  14 C14           -3.6779     4.4153     1.0785 C.ar    
  15 C15           -3.2317     3.5189     0.1242 C.ar    
  16 C16            2.0434     0.1809     0.9180 C.ar    
  17 C17            3.2207    -0.4907     1.1566 C.ar    
  18 C18            4.4449     0.1702     1.0013 C.ar    
  19 C19            4.4656     1.5139     0.6091 C.ar    
  20 C20            3.3047     3.6244    -0.0492 C.3     
  21 C21            0.7249    -0.5295     1.0849 C.3     
  22 C22            5.7049    -0.5429     1.2555 C.2     
  23 C23            6.8845     0.0962     1.1051 C.2     
  24 C24            8.1119    -0.5985     1.3527 C.1     
  25 N25            9.0857    -1.1496     1.5492 N.1     
  26 N26           -0.0663    -0.3799    -3.6867 N.pl3   
  27 C27           -1.1696    -0.2915    -4.4844 C.2     
  28 N28           -1.9797     0.6160    -4.0228 N.2     
  29 C29           -4.7093     5.7269    -0.6428 C.ar    
  30 C30           -4.7803     6.3398     1.9153 C.3     
  31 C31           -4.5681     5.3927     3.1153 C.3     
  32 C32           -3.4992     4.4156     2.5817 C.3     
  33 H33           -3.6028     2.6501    -2.9738 H       
  34 H34            0.5948     2.9077     0.8748 H       
  35 H35           -4.4976     4.9997    -2.6405 H       
  36 H36           -2.6567     2.6551     0.4236 H       
  37 H37            3.2001    -1.5259     1.4636 H       
  38 H38            5.4080     2.0274     0.4881 H       
  39 H39            3.2744     4.2614     0.8348 H       
  40 H40            4.2168     3.8257    -0.6110 H       
  41 H41            2.4380     3.8324    -0.6768 H       
  42 H42            0.4852    -1.0704     0.1694 H       
  43 H43            0.7934    -1.2325     1.9150 H       
  44 H44           -0.0577     0.2008     1.2909 H       
  45 H45            5.6870    -1.5782     1.5626 H       
  46 H46            6.9024     1.1315     0.7980 H       
  47 H47            0.6863    -0.9787    -3.8124 H       
  48 H48           -1.3447    -0.8868    -5.3683 H       
  49 H49           -5.2883     6.5890    -0.9395 H       
  50 H50           -4.1265     7.2080     1.9985 H       
  51 H51           -5.8226     6.6542     1.8613 H       
  52 H52           -4.1946     5.9410     3.9802 H       
  53 H53           -5.4895     4.8637     3.3590 H       
  54 H54           -3.6667     3.4160     2.9827 H       
  55 H55           -2.5012     4.7669     2.8438 H       
@<TRIPOS>BOND
   1    1    2 ar
   2    1    8 1
   3    1    6 ar
   4    2    3 ar
   5    3    4 ar
   6    3   26 1
   7    4    5 ar
   8    4   28 1
   9    5    6 ar
  10    5    7 1
  11    7    9 1
  12    7   33 1
  13    8   10 1
  14    8   34 1
  15    9   12 ar
  16    9   15 ar
  17   10   11 ar
  18   10   16 ar
  19   11   20 1
  20   11   19 ar
  21   12   29 ar
  22   12   35 1
  23   13   14 ar
  24   13   30 1
  25   13   29 ar
  26   14   15 ar
  27   14   32 1
  28   15   36 1
  29   16   17 ar
  30   16   21 1
  31   17   18 ar
  32   17   37 1
  33   18   19 ar
  34   18   22 1
  35   19   38 1
  36   20   39 1
  37   20   40 1
  38   20   41 1
  39   21   42 1
  40   21   43 1
  41   21   44 1
  42   22   23 2
  43   22   45 1
  44   23   24 1
  45   23   46 1
  46   24   25 3
  47   26   27 1
  48   26   47 1
  49   27   28 2
  50   27   48 1
  51   29   49 1
  52   30   31 1
  53   30   50 1
  54   30   51 1
  55   31   32 1
  56   31   52 1
  57   31   53 1
  58   32   54 1
  59   32   55 1

#	End of record

