#	Name: ASD03730253
#	Creating user name:	WinNT
#	Creation time:	15. 06. 2019 20:44

#	Modifying user name:	WinNT
#	Modification time:	15. 06. 2019 20:44

#	Program:	/corina/corina34_cracker 3.40 0067  02.08.2006

@<TRIPOS>MOLECULE
ASD03730253
  61   67    0    0    0
SMALL
NO_CHARGES


@<TRIPOS>ATOM
   1 O1            -0.4737     1.1464     1.3358 O.3     
   2 C2            -0.4068    -0.2899     1.4108 C.3     
   3 O3             0.6703    -0.6293     0.5180 O.3     
   4 C4             1.4925     0.4610     0.5061 C.ar    
   5 C5             0.7873     1.5535     1.0060 C.ar    
   6 C6             2.8078     0.6115     0.1055 C.ar    
   7 C7             3.4337     1.8514     0.1922 C.ar    
   8 C8             2.7150     2.9388     0.6800 C.ar    
   9 C9             1.4061     2.7896     1.0885 C.ar    
  10 O10            4.7116     2.2066    -0.1256 O.3     
  11 C11            3.6385     4.1257     0.6191 C.3     
  12 C12            4.7812     3.6370    -0.2816 C.3     
  13 N13            3.0719     6.3086     0.9878 N.am    
  14 C14            2.9640     5.3426     0.0538 C.2     
  15 C15            4.1311     4.5379     1.9742 C.ar    
  16 C16            4.8242     3.8831     2.9829 C.ar    
  17 C17            5.1427     4.5625     4.1584 C.ar    
  18 C18            4.7658     5.8821     4.3103 C.ar    
  19 C19            4.0767     6.5322     3.3067 C.ar    
  20 C20            3.7518     5.8671     2.1258 C.ar    
  21 O21            2.4282     5.4377    -1.0302 O.2     
  22 C22            2.5379     7.6635     0.8283 C.3     
  23 C23            1.1027     7.7114     1.3561 C.3     
  24 C24            0.5450     9.1264     1.1896 C.3     
  25 C25           -0.8902     9.1744     1.7174 C.3     
  26 C26           -1.4479    10.5894     1.5509 C.3     
  27 N27            6.4923    -1.4107     2.1393 N.pl3   
  28 C28            7.3407    -1.2320     1.0808 C.2     
  29 C29            7.3839     0.0662     0.7427 C.2     
  30 C30            6.4896     0.7772     1.6602 C.ar    
  31 C31            6.1202     2.1137     1.8110 C.ar    
  32 C32            5.2246     2.4645     2.8113 C.ar    
  33 C33            4.6988     1.4832     3.6583 C.ar    
  34 C34            5.0571     0.1741     3.5147 C.ar    
  35 C35            5.9544    -0.2012     2.5186 C.ar    
  36 H36           -0.1771    -0.6101     2.4271 H       
  37 H37           -1.3415    -0.7352     1.0699 H       
  38 H38            3.3528    -0.2389    -0.2769 H       
  39 H39            0.8623     3.6392     1.4742 H       
  40 H40            5.7403     4.0184     0.0687 H       
  41 H41            4.6055     3.9222    -1.3189 H       
  42 H42            5.6817     4.0584     4.9469 H       
  43 H43            5.0115     6.4088     5.2205 H       
  44 H44            3.7868     7.5643     3.4375 H       
  45 H45            3.1549     8.3655     1.3892 H       
  46 H46            2.5462     7.9354    -0.2272 H       
  47 H47            0.4856     7.0094     0.7952 H       
  48 H48            1.0944     7.4395     2.4116 H       
  49 H49            1.1621     9.8284     1.7505 H       
  50 H50            0.5533     9.3983     0.1341 H       
  51 H51           -1.5073     8.4724     1.1565 H       
  52 H52           -0.8985     8.9025     2.7729 H       
  53 H53           -0.8308    11.2914     2.1118 H       
  54 H54           -1.4396    10.8613     0.4954 H       
  55 H55           -2.4704    10.6235     1.9269 H       
  56 H56            6.2956    -2.2635     2.5576 H       
  57 H57            7.8940    -2.0191     0.5902 H       
  58 H58            7.9673     0.5037    -0.0539 H       
  59 H59            6.5289     2.8691     1.1562 H       
  60 H60            4.0023     1.7645     4.4343 H       
  61 H61            4.6436    -0.5729     4.1761 H       
@<TRIPOS>BOND
   1    1    2 1
   2    1    5 1
   3    2    3 1
   4    2   36 1
   5    2   37 1
   6    3    4 1
   7    4    5 ar
   8    4    6 ar
   9    5    9 ar
  10    6    7 ar
  11    6   38 1
  12    7    8 ar
  13    7   10 1
  14    8    9 ar
  15    8   11 1
  16    9   39 1
  17   10   12 1
  18   11   12 1
  19   11   14 1
  20   11   15 1
  21   12   40 1
  22   12   41 1
  23   13   14 am
  24   13   20 1
  25   13   22 1
  26   14   21 2
  27   15   16 ar
  28   15   20 ar
  29   16   17 ar
  30   16   32 1
  31   17   18 ar
  32   17   42 1
  33   18   19 ar
  34   18   43 1
  35   19   20 ar
  36   19   44 1
  37   22   23 1
  38   22   45 1
  39   22   46 1
  40   23   24 1
  41   23   47 1
  42   23   48 1
  43   24   25 1
  44   24   49 1
  45   24   50 1
  46   25   26 1
  47   25   51 1
  48   25   52 1
  49   26   53 1
  50   26   54 1
  51   26   55 1
  52   27   28 1
  53   27   35 1
  54   27   56 1
  55   28   29 2
  56   28   57 1
  57   29   30 1
  58   29   58 1
  59   30   31 ar
  60   30   35 ar
  61   31   32 ar
  62   31   59 1
  63   32   33 ar
  64   33   34 ar
  65   33   60 1
  66   34   35 ar
  67   34   61 1

#	End of record

