#	Name: ASD00122028
#	Creating user name:	WinNT
#	Creation time:	15. 06. 2019 18:31

#	Modifying user name:	WinNT
#	Modification time:	15. 06. 2019 18:31

#	Program:	/corina/corina34_cracker 3.40 0067  02.08.2006

@<TRIPOS>MOLECULE
ASD00122028
  32   32    0    0    0
SMALL
NO_CHARGES


@<TRIPOS>ATOM
   1 C1            -0.0169     1.3925     0.0097 C.ar    
   2 C2             0.0021    -0.0041     0.0020 C.ar    
   3 C3             1.2211    -0.6857    -0.0133 C.ar    
   4 C4             2.4042     0.0195    -0.0208 C.ar    
   5 C5             2.3850     1.4156    -0.0131 C.ar    
   6 C6             1.1664     2.0972     0.0022 C.ar    
   7 C7             3.6556     2.1726    -0.0212 C.2     
   8 N8             3.6372     3.5203    -0.0138 N.am    
   9 O9             4.7164     1.5794    -0.0345 O.2     
  10 C10            4.8958     4.2701    -0.0218 C.3     
  11 C11            4.6590     5.6575    -0.6217 C.3     
  12 C12            5.4120     4.4154     1.4112 C.3     
  13 C13            5.7667     3.0351     1.9679 C.3     
  14 C14            4.2627     5.5162    -2.0927 C.3     
  15 C15           -1.2281    -0.7370     0.0103 C.1     
  16 N16           -2.2040    -1.3184     0.0169 N.1     
  17 H17           -0.9594     1.9198     0.0170 H       
  18 H18            1.2360    -1.7655    -0.0189 H       
  19 H19            3.3468    -0.5075    -0.0323 H       
  20 H20            1.1519     3.1771     0.0085 H       
  21 H21            2.7907     3.9937    -0.0031 H       
  22 H22            5.6331     3.7360    -0.6211 H       
  23 H23            3.8587     6.1575    -0.0762 H       
  24 H24            5.5731     6.2466    -0.5466 H       
  25 H25            6.2997     5.0479     1.4152 H       
  26 H26            4.6393     4.8697     2.0314 H       
  27 H27            4.8790     2.4026     1.9639 H       
  28 H28            6.5393     2.5808     1.3477 H       
  29 H29            6.1344     3.1386     2.9888 H       
  30 H30            5.0631     5.0162    -2.6382 H       
  31 H31            3.3487     4.9271    -2.1678 H       
  32 H32            4.0941     6.5046    -2.5201 H       
@<TRIPOS>BOND
   1    1    2 ar
   2    1    6 ar
   3    1   17 1
   4    2    3 ar
   5    2   15 1
   6    3    4 ar
   7    3   18 1
   8    4    5 ar
   9    4   19 1
  10    5    6 ar
  11    5    7 1
  12    6   20 1
  13    7    8 am
  14    7    9 2
  15    8   10 1
  16    8   21 1
  17   10   11 1
  18   10   12 1
  19   10   22 1
  20   11   14 1
  21   11   23 1
  22   11   24 1
  23   12   13 1
  24   12   25 1
  25   12   26 1
  26   13   27 1
  27   13   28 1
  28   13   29 1
  29   14   30 1
  30   14   31 1
  31   14   32 1
  32   15   16 3

#	End of record

