#	Name: ASD01900401
#	Creating user name:	WinNT
#	Creation time:	15. 06. 2019 19:51

#	Modifying user name:	WinNT
#	Modification time:	15. 06. 2019 19:51

#	Program:	/corina/corina34_cracker 3.40 0067  02.08.2006

@<TRIPOS>MOLECULE
ASD01900401
  25   27    0    0    0
SMALL
NO_CHARGES


@<TRIPOS>ATOM
   1 C1            -0.0221     1.3976     0.0526 C.ar    
   2 C2            -0.0065    -0.0089     0.1135 C.ar    
   3 C3             1.2195    -0.6733     0.1047 C.ar    
   4 C4             2.3724     0.0838     0.0363 C.ar    
   5 C5             2.2824     1.4685    -0.0213 C.ar    
   6 N6             1.1193     2.0790    -0.0121 N.ar    
   7 N7            -2.1483     0.6980     0.1492 N.2     
   8 N8            -1.3112    -0.4223     0.1720 N.pl3   
   9 C9            -1.4331     1.7897     0.0848 C.2     
  10 N10           -1.9266     3.0974     0.0450 N.pl3   
  11 C11           -3.8180     4.6117     0.0759 C.ar    
  12 C12           -3.3041     3.3226    -0.0405 C.ar    
  13 C13           -4.1815     2.2624    -0.2434 C.ar    
  14 C14           -5.5396     2.5360    -0.3218 C.ar    
  15 C15           -5.9742     3.8423    -0.1967 C.ar    
  16 N16           -5.1168     4.8272    -0.0047 N.ar    
  17 F17           -2.9787     5.6507     0.2789 F       
  18 Cl18          -6.6804     1.2521    -0.5746 Cl      
  19 H19            1.2661    -1.7513     0.1506 H       
  20 H20            3.3388    -0.3983     0.0280 H       
  21 H21            3.1873     2.0555    -0.0747 H       
  22 H22           -1.6073    -1.3447     0.2211 H       
  23 H23           -1.3134     3.8483     0.0766 H       
  24 H24           -3.8147     1.2510    -0.3381 H       
  25 H25           -7.0302     4.0601    -0.2574 H       
@<TRIPOS>BOND
   1    1    2 ar
   2    1    6 ar
   3    1    9 1
   4    2    3 ar
   5    2    8 1
   6    3    4 ar
   7    3   19 1
   8    4    5 ar
   9    4   20 1
  10    5    6 ar
  11    5   21 1
  12    7    8 1
  13    7    9 2
  14    8   22 1
  15    9   10 1
  16   10   12 1
  17   10   23 1
  18   11   12 ar
  19   11   16 ar
  20   11   17 1
  21   12   13 ar
  22   13   14 ar
  23   13   24 1
  24   14   15 ar
  25   14   18 1
  26   15   16 ar
  27   15   25 1

#	End of record

