#	Name: ASD03540308
#	Creating user name:	WinNT
#	Creation time:	15. 06. 2019 20:43

#	Modifying user name:	WinNT
#	Modification time:	15. 06. 2019 20:43

#	Program:	/corina/corina34_cracker 3.40 0067  02.08.2006

@<TRIPOS>MOLECULE
ASD03540308
  56   59    0    0    0
SMALL
NO_CHARGES


@<TRIPOS>ATOM
   1 C1            -0.0167     1.3794     0.0096 C.2     
   2 N2             0.0021    -0.0041     0.0020 N.am    
   3 C3             1.1565    -0.6857    -0.0122 C.2     
   4 N4             2.3495    -0.0696    -0.0203 N.am    
   5 C5             2.4351     1.2736    -0.0139 C.2     
   6 C6             1.1885     2.0715     0.0018 C.2     
   7 C7             1.0216     3.4582     0.0098 C.2     
   8 C8            -0.2600     3.8609     0.0230 C.2     
   9 S9            -1.3307     2.4709     0.0211 S.3     
  10 O10            3.5206     1.8236    -0.0205 O.2     
  11 C11            3.5757    -0.8710    -0.0359 C.3     
  12 C12           -1.2652    -0.7390     0.0102 C.3     
  13 O13            1.1220    -1.9010    -0.0176 O.2     
  14 C14            3.9829    -1.1387    -1.4619 C.2     
  15 C15           -0.6998     5.2580     0.0342 C.2     
  16 O16            0.1229     6.1551     0.0319 O.2     
  17 N17           -2.0155     5.5503     0.0471 N.am    
  18 C18           -2.4553     6.9477     0.0583 C.3     
  19 C19           -3.9614     7.0001     0.0715 C.ar    
  20 C20           -4.6408     7.0178     1.2756 C.ar    
  21 C21           -6.0213     7.0658     1.2904 C.ar    
  22 C22           -6.7260     7.0964     0.0958 C.ar    
  23 C23           -6.0419     7.0786    -1.1110 C.ar    
  24 C24           -4.6612     7.0362    -1.1204 C.ar    
  25 O25           -8.0841     7.1433     0.1077 O.3     
  26 C26           -8.7434     7.1727    -1.1598 C.3     
  27 C27            4.7945    -0.3744    -2.2276 C.2     
  28 C28            4.8480    -1.0666    -3.4667 C.2     
  29 N29            4.0974    -2.1273    -3.3249 N.2     
  30 O30            3.6158    -2.1840    -2.2173 O.3     
  31 N31            5.5587    -0.6897    -4.6064 N.am    
  32 C32            6.2934     0.4402    -4.5996 C.2     
  33 O33            6.9793     0.8039    -5.6995 O.3     
  34 O34            6.3366     1.1306    -3.6007 O.2     
  35 C35            7.7488     2.0326    -5.6203 C.3     
  36 H36            1.8524     4.1482     0.0058 H       
  37 H37            4.3715    -0.3274     0.4733 H       
  38 H38            3.3978    -1.8174     0.4749 H       
  39 H39           -1.5893    -0.9158    -1.0154 H       
  40 H40           -1.1282    -1.6939     0.5176 H       
  41 H41           -2.0210    -0.1542     0.5344 H       
  42 H42           -2.6711     4.8354     0.0489 H       
  43 H43           -2.0667     7.4438     0.9477 H       
  44 H44           -2.0820     7.4533    -0.8322 H       
  45 H45           -4.0918     6.9936     2.2053 H       
  46 H46           -6.5516     7.0792     2.2312 H       
  47 H47           -6.5883     7.1024    -2.0424 H       
  48 H48           -4.1281     7.0224    -2.0596 H       
  49 H49           -8.4248     8.0551    -1.7147 H       
  50 H50           -8.4862     6.2762    -1.7240 H       
  51 H51           -9.8221     7.2092    -1.0075 H       
  52 H52            5.2873     0.5484    -1.9593 H       
  53 H53            5.5242    -1.2410    -5.4038 H       
  54 H54            7.0811     2.8661    -5.4026 H       
  55 H55            8.4917     1.9455    -4.8274 H       
  56 H56            8.2515     2.2085    -6.5713 H       
@<TRIPOS>BOND
   1    1    2 1
   2    1    6 2
   3    1    9 1
   4    2    3 am
   5    2   12 1
   6    3    4 am
   7    3   13 2
   8    4    5 am
   9    4   11 1
  10    5    6 1
  11    5   10 2
  12    6    7 1
  13    7    8 2
  14    7   36 1
  15    8    9 1
  16    8   15 1
  17   11   14 1
  18   11   37 1
  19   11   38 1
  20   12   39 1
  21   12   40 1
  22   12   41 1
  23   14   27 2
  24   14   30 1
  25   15   16 2
  26   15   17 am
  27   17   18 1
  28   17   42 1
  29   18   19 1
  30   18   43 1
  31   18   44 1
  32   19   20 ar
  33   19   24 ar
  34   20   21 ar
  35   20   45 1
  36   21   22 ar
  37   21   46 1
  38   22   23 ar
  39   22   25 1
  40   23   24 ar
  41   23   47 1
  42   24   48 1
  43   25   26 1
  44   26   49 1
  45   26   50 1
  46   26   51 1
  47   27   28 1
  48   27   52 1
  49   28   29 2
  50   28   31 1
  51   29   30 1
  52   31   32 am
  53   31   53 1
  54   32   33 1
  55   32   34 2
  56   33   35 1
  57   35   54 1
  58   35   55 1
  59   35   56 1

#	End of record

