#	Name: ASD01812510
#	Creating user name:	WinNT
#	Creation time:	15. 06. 2019 19:28

#	Modifying user name:	WinNT
#	Modification time:	15. 06. 2019 19:28

#	Program:	/corina/corina34_cracker 3.40 0067  02.08.2006

@<TRIPOS>MOLECULE
ASD01812510
  50   54    0    0    0
SMALL
NO_CHARGES


@<TRIPOS>ATOM
   1 C1            -0.0700     1.4565     0.0139 C.ar    
   2 C2            -0.0648    -0.0035     0.0086 C.ar    
   3 C3            -1.3035    -0.6880    -0.0454 C.ar    
   4 C4            -2.5090     0.0432    -0.0923 C.ar    
   5 C5            -2.5074     1.3975    -0.0867 C.ar    
   6 C6            -1.3078     2.1243    -0.0295 C.ar    
   7 C7            -1.3088    -2.0913    -0.0508 C.ar    
   8 C8            -0.1291    -2.7724    -0.0043 C.ar    
   9 C9             1.0858    -2.0969     0.0491 C.ar    
  10 C10            1.1275    -0.7331     0.0559 C.ar    
  11 N11            1.0657     2.1727     0.0642 N.2     
  12 C12            1.0546     3.4736     0.0690 C.2     
  13 N13           -0.0902     4.2059     0.0247 N.am    
  14 C14           -1.2954     3.5923    -0.0236 C.2     
  15 C15           -3.8213    -0.6955    -0.1500 C.3     
  16 C16           -4.2568    -1.0559     1.2469 C.ar    
  17 C17           -3.8680    -2.2545     1.8118 C.ar    
  18 C18           -5.0483    -0.1842     1.9816 C.ar    
  19 C19           -5.4260    -0.5543     3.2609 C.ar    
  20 C20           -5.0027    -1.7780     3.7630 C.ar    
  21 N21           -4.2442    -2.5797     3.0338 N.ar    
  22 O22           -2.3302     4.2334    -0.0599 O.2     
  23 O23           -5.3657    -2.1521     5.0156 O.3     
  24 C24           -4.8984    -3.4222     5.4744 C.3     
  25 C25           -0.0224     5.5937     0.0336 C.2     
  26 N26            0.1039     6.3962    -1.0432 N.pl3   
  27 N27            0.1342     7.7244    -0.6044 N.2     
  28 C28            0.0308     7.7476     0.6955 C.2     
  29 C29           -0.0780     6.4153     1.1533 C.2     
  30 C30           -0.2164     5.9914     2.5141 C.1     
  31 N31           -0.3262     5.6551     3.5936 N.1     
  32 C32            0.1945     5.9522    -2.4364 C.3     
  33 H33           -3.4472     1.9284    -0.1234 H       
  34 H34           -2.2443    -2.6296    -0.0913 H       
  35 H35           -0.1377    -3.8524    -0.0087 H       
  36 H36            2.0074    -2.6588     0.0857 H       
  37 H37            2.0767    -0.2194     0.0969 H       
  38 H38            1.9988     3.9963     0.1105 H       
  39 H39           -4.5759    -0.0599    -0.6133 H       
  40 H40           -3.7008    -1.6048    -0.7390 H       
  41 H41           -3.2483    -2.9344     1.2460 H       
  42 H42           -5.3621     0.7615     1.5649 H       
  43 H43           -6.0413     0.1000     3.8606 H       
  44 H44           -5.2709    -4.2062     4.8150 H       
  45 H45           -3.8084    -3.4315     5.4703 H       
  46 H46           -5.2594    -3.5978     6.4878 H       
  47 H47            0.0250     8.6324     1.3147 H       
  48 H48           -0.8083     5.7968    -2.8341 H       
  49 H49            0.7060     6.7120    -3.0273 H       
  50 H50            0.7533     5.0176    -2.4842 H       
@<TRIPOS>BOND
   1    1    2 ar
   2    1   11 1
   3    1    6 ar
   4    2   10 ar
   5    2    3 ar
   6    3    4 ar
   7    3    7 ar
   8    4    5 ar
   9    4   15 1
  10    5    6 ar
  11    5   33 1
  12    6   14 1
  13    7    8 ar
  14    7   34 1
  15    8    9 ar
  16    8   35 1
  17    9   10 ar
  18    9   36 1
  19   10   37 1
  20   11   12 2
  21   12   13 1
  22   12   38 1
  23   13   14 am
  24   13   25 1
  25   14   22 2
  26   15   16 1
  27   15   39 1
  28   15   40 1
  29   16   18 ar
  30   16   17 ar
  31   17   21 ar
  32   17   41 1
  33   18   19 ar
  34   18   42 1
  35   19   20 ar
  36   19   43 1
  37   20   21 ar
  38   20   23 1
  39   23   24 1
  40   24   44 1
  41   24   45 1
  42   24   46 1
  43   25   26 1
  44   25   29 2
  45   26   32 1
  46   26   27 1
  47   27   28 2
  48   28   29 1
  49   28   47 1
  50   29   30 1
  51   30   31 3
  52   32   48 1
  53   32   49 1
  54   32   50 1

#	End of record

