#	Name: ASD03092143
#	Creating user name:	WinNT
#	Creation time:	15. 06. 2019 20:32

#	Modifying user name:	WinNT
#	Modification time:	15. 06. 2019 20:32

#	Program:	/corina/corina34_cracker 3.40 0067  02.08.2006

@<TRIPOS>MOLECULE
ASD03092143
  48   50    0    0    0
SMALL
NO_CHARGES


@<TRIPOS>ATOM
   1 N1            -0.2191     1.4439    -0.4287 N.pl3   
   2 C2            -0.1612     0.0829    -0.4841 C.2     
   3 C3            -1.4055    -0.3922    -0.1822 C.2     
   4 C4            -2.2365     0.7085     0.0619 C.2     
   5 N5            -1.5268     1.8042    -0.0798 N.2     
   6 N6            -3.5928     0.6502     0.4048 N.pl3   
   7 C7            -4.3395     1.8267     0.5037 C.ar    
   8 C8            -4.0112     2.9268    -0.2778 C.ar    
   9 C9            -4.7528     4.0902    -0.1771 C.ar    
  10 C10           -5.8208     4.1574     0.7022 C.ar    
  11 C11           -5.4157     1.8967     1.3801 C.ar    
  12 C12            1.0307    -0.7301    -0.8118 C.ar    
  13 C13            0.8910     2.3656    -0.6827 C.3     
  14 C14            2.0929    -0.1857    -1.5455 C.ar    
  15 C15            3.1858    -0.9747    -1.8309 C.ar    
  16 N16            3.2434    -2.2294    -1.4242 N.ar    
  17 C17            2.2632    -2.7863    -0.7282 C.ar    
  18 C18            1.1292    -2.0588    -0.3930 C.ar    
  19 C19           -6.1486     3.0627     1.4808 C.ar    
  20 F20           -4.4350     5.1614    -0.9365 F       
  21 C21            0.8290     2.8514    -2.1322 C.3     
  22 N22            2.3740    -4.1121    -0.3241 N.pl3   
  23 C23            1.2949    -4.7358     0.4458 C.3     
  24 C24            1.6654    -6.1866     0.7603 C.3     
  25 O25            0.7918     3.4853     0.1997 O.3     
  26 C26           -7.3114     3.1402     2.4363 C.3     
  27 F27           -7.8968     4.4083     2.3566 F       
  28 F28           -8.2584     2.1674     2.0982 F       
  29 F29           -6.8587     2.9167     3.7410 F       
  30 H30           -1.6969    -1.4313    -0.1398 H       
  31 H31           -4.0140    -0.2071     0.5738 H       
  32 H32           -3.1779     2.8742    -0.9628 H       
  33 H33           -6.3984     5.0666     0.7801 H       
  34 H34           -5.6759     1.0410     1.9854 H       
  35 H35            1.8367     1.8512    -0.5120 H       
  36 H36            2.0554     0.8394    -1.8834 H       
  37 H37            4.0077    -0.5606    -2.3961 H       
  38 H38            0.3320    -2.5158     0.1745 H       
  39 H39           -0.1167     3.3658    -2.3028 H       
  40 H40            1.6549     3.5372    -2.3211 H       
  41 H41            0.9046     1.9973    -2.8052 H       
  42 H42            3.1657    -4.6241    -0.5519 H       
  43 H43            1.1493    -4.1881     1.3769 H       
  44 H44            0.3736    -4.7141    -0.1364 H       
  45 H45            1.8110    -6.7344    -0.1708 H       
  46 H46            2.5866    -6.2084     1.3425 H       
  47 H47            0.8625    -6.6507     1.3331 H       
  48 H48           -0.0267     3.9909     0.1030 H       
@<TRIPOS>BOND
   1    1    2 1
   2    1   13 1
   3    1    5 1
   4    2    3 2
   5    2   12 1
   6    3    4 1
   7    3   30 1
   8    4    5 2
   9    4    6 1
  10    6    7 1
  11    6   31 1
  12    7    8 ar
  13    7   11 ar
  14    8    9 ar
  15    8   32 1
  16    9   10 ar
  17    9   20 1
  18   10   19 ar
  19   10   33 1
  20   11   19 ar
  21   11   34 1
  22   12   14 ar
  23   12   18 ar
  24   13   21 1
  25   13   25 1
  26   13   35 1
  27   14   15 ar
  28   14   36 1
  29   15   16 ar
  30   15   37 1
  31   16   17 ar
  32   17   18 ar
  33   17   22 1
  34   18   38 1
  35   19   26 1
  36   21   39 1
  37   21   40 1
  38   21   41 1
  39   22   23 1
  40   22   42 1
  41   23   24 1
  42   23   43 1
  43   23   44 1
  44   24   45 1
  45   24   46 1
  46   24   47 1
  47   25   48 1
  48   26   27 1
  49   26   28 1
  50   26   29 1

#	End of record

