#	Name: ASD02030456
#	Creating user name:	WinNT
#	Creation time:	15. 06. 2019 20:15

#	Modifying user name:	WinNT
#	Modification time:	15. 06. 2019 20:15

#	Program:	/corina/corina34_cracker 3.40 0067  02.08.2006

@<TRIPOS>MOLECULE
ASD02030456
  27   29    0    0    0
SMALL
NO_CHARGES


@<TRIPOS>ATOM
   1 C1            -0.0157     1.3041     0.0092 C.ar    
   2 N2             0.0021    -0.0041     0.0020 N.ar    
   3 C3             1.1365    -0.7101    -0.0126 C.ar    
   4 C4             2.3735    -0.0884    -0.0205 C.ar    
   5 C5             2.4181     1.3167    -0.0134 C.ar    
   6 C6             3.6295     2.0239    -0.0212 C.ar    
   7 C7             3.6106     3.3865    -0.0142 C.ar    
   8 C8             2.4064     4.0868     0.0006 C.ar    
   9 C9             1.2114     3.4316     0.0089 C.ar    
  10 C10            1.1907     2.0296     0.0016 C.ar    
  11 C11            1.0693    -2.1867    -0.0199 C.2     
  12 O12            2.0924    -2.8412    -0.0331 O.2     
  13 O13           -0.1268    -2.8065    -0.0118 O.3     
  14 C14           -1.3324     2.0371     0.0194 C.3     
  15 C15           -2.2852     1.7941    -1.1528 C.3     
  16 C16           -2.6013     1.2071     0.2243 C.3     
  17 H17            3.2836    -0.6697    -0.0316 H       
  18 H18            4.5697     1.4927    -0.0322 H       
  19 H19            4.5430     3.9316    -0.0197 H       
  20 H20            2.4201     5.1667     0.0058 H       
  21 H21            0.2863     3.9888     0.0210 H       
  22 H22           -0.1202    -3.7735    -0.0171 H       
  23 H23           -1.3101     3.0378     0.4508 H       
  24 H24           -2.8900     2.6350    -1.4923 H       
  25 H25           -1.9597     1.1042    -1.9313 H       
  26 H26           -2.4837     0.1310     0.3518 H       
  27 H27           -3.4140     1.6618     0.7908 H       
@<TRIPOS>BOND
   1    1    2 ar
   2    1   10 ar
   3    1   14 1
   4    2    3 ar
   5    3    4 ar
   6    3   11 1
   7    4    5 ar
   8    4   17 1
   9    5    6 ar
  10    5   10 ar
  11    6    7 ar
  12    6   18 1
  13    7    8 ar
  14    7   19 1
  15    8    9 ar
  16    8   20 1
  17    9   10 ar
  18    9   21 1
  19   11   12 2
  20   11   13 1
  21   13   22 1
  22   14   15 1
  23   14   16 1
  24   14   23 1
  25   15   16 1
  26   15   24 1
  27   15   25 1
  28   16   26 1
  29   16   27 1

#	End of record

