#	Name: ASD01901372
#	Creating user name:	WinNT
#	Creation time:	15. 06. 2019 19:53

#	Modifying user name:	WinNT
#	Modification time:	15. 06. 2019 19:53

#	Program:	/corina/corina34_cracker 3.40 0067  02.08.2006

@<TRIPOS>MOLECULE
ASD01901372
  38   41    0    0    0
SMALL
NO_CHARGES


@<TRIPOS>ATOM
   1 C1            -0.0168     1.3904     0.0097 C.ar    
   2 C2             1.1710     2.0945     0.0021 C.ar    
   3 C3             2.3795     1.4174    -0.0130 C.ar    
   4 C4             2.4023     0.0324    -0.0212 C.ar    
   5 C5             1.2201    -0.6798    -0.0137 C.ar    
   6 C6             0.0021    -0.0041     0.0020 C.ar    
   7 C7            -1.2717    -0.7658     0.0106 C.2     
   8 N8            -3.1805    -1.5352    -1.1466 N.2     
   9 C9            -2.0565    -0.8615    -1.1592 C.2     
  10 C10           -1.6987    -1.3893     1.1495 C.2     
  11 N11           -2.8736    -2.0807     1.1229 N.pl3   
  12 C12           -3.6102    -2.1454    -0.0318 C.2     
  13 C13           -3.5511    -2.7935     2.0752 C.2     
  14 C14           -4.6705    -3.2715     1.4913 C.2     
  15 N15           -4.6924    -2.8692     0.2171 N.2     
  16 C16           -5.7208    -4.1168     2.1644 C.3     
  17 O17           -5.3519    -4.3395     3.5269 O.3     
  18 C18           -6.1986    -5.0896     4.2809 C.ar    
  19 C19           -7.3571    -5.6051     3.7187 C.ar    
  20 C20           -5.9018    -5.3451     5.6116 C.ar    
  21 C21           -6.7629    -6.1079     6.3765 C.ar    
  22 C22           -7.9214    -6.6178     5.8154 C.ar    
  23 C23           -8.2164    -6.3676     4.4859 C.ar    
  24 F24           -8.7621    -7.3644     6.5643 F       
  25 Cl25          -1.5308     2.2394     0.0359 Cl      
  26 F26            3.5394     2.1100    -0.0204 F       
  27 H27            1.1578     3.1744     0.0077 H       
  28 H28            3.3468    -0.4912    -0.0337 H       
  29 H29            1.2393    -1.7596    -0.0204 H       
  30 H30           -1.7295    -0.3773    -2.0675 H       
  31 H31           -1.1144    -1.3354     2.0562 H       
  32 H32           -3.2472    -2.9451     3.1004 H       
  33 H33           -6.6806    -3.6015     2.1275 H       
  34 H34           -5.8022    -5.0738     1.6490 H       
  35 H35           -7.5875    -5.4101     2.6817 H       
  36 H36           -4.9979    -4.9481     6.0493 H       
  37 H37           -6.5321    -6.3070     7.4126 H       
  38 H38           -9.1185    -6.7691     4.0485 H       
@<TRIPOS>BOND
   1    1    6 ar
   2    1    2 ar
   3    1   25 1
   4    2    3 ar
   5    2   27 1
   6    3    4 ar
   7    3   26 1
   8    4    5 ar
   9    4   28 1
  10    5    6 ar
  11    5   29 1
  12    6    7 1
  13    7   10 2
  14    7    9 1
  15    8    9 2
  16    8   12 1
  17    9   30 1
  18   10   11 1
  19   10   31 1
  20   11   13 1
  21   11   12 1
  22   12   15 2
  23   13   14 2
  24   13   32 1
  25   14   15 1
  26   14   16 1
  27   16   17 1
  28   16   33 1
  29   16   34 1
  30   17   18 1
  31   18   20 ar
  32   18   19 ar
  33   19   23 ar
  34   19   35 1
  35   20   21 ar
  36   20   36 1
  37   21   22 ar
  38   21   37 1
  39   22   23 ar
  40   22   24 1
  41   23   38 1

#	End of record

