#	Name: ASD03330411
#	Creating user name:	WinNT
#	Creation time:	15. 06. 2019 20:37

#	Modifying user name:	WinNT
#	Modification time:	15. 06. 2019 20:37

#	Program:	/corina/corina34_cracker 3.40 0067  02.08.2006

@<TRIPOS>MOLECULE
ASD03330411
  64   67    0    0    0
SMALL
NO_CHARGES


@<TRIPOS>ATOM
   1 C1            -0.1612     1.5835    -1.3893 C.2     
   2 N2            -0.2187     0.2947    -1.7998 N.pl3   
   3 C3             1.1010     1.8020    -0.9258 C.2     
   4 N4             1.7985     0.6548    -1.0749 N.2     
   5 C5             1.0148    -0.2546    -1.6047 C.2     
   6 C6             1.4038    -1.6433    -1.9353 C.ar    
   7 C7             0.4557    -2.6658    -1.8906 C.ar    
   8 C8             1.6138     3.0637    -0.3631 C.2     
   9 O9             0.8846     4.0337    -0.2809 O.2     
  10 C10            3.4005     4.3973     0.6200 C.3     
  11 N11            2.8908     3.1429     0.0606 N.am    
  12 C12            0.8247    -3.9587    -2.2005 C.ar    
  13 C13            2.1316    -4.2422    -2.5549 C.ar    
  14 C14            3.0764    -3.2326    -2.6011 C.ar    
  15 C15            2.7189    -1.9348    -2.2986 C.ar    
  16 C16            3.6356     3.2473     2.8256 C.3     
  17 C17            3.0563     4.4687     2.1091 C.3     
  18 C18            3.6530     5.7430     2.7099 C.3     
  19 C19            4.8965     4.4532     0.4470 C.2     
  20 N20            5.5360     5.6387     0.4902 N.am    
  21 C21            1.5361     4.4873     2.2808 C.3     
  22 O22            5.5250     3.4313     0.2690 O.2     
  23 C23            6.9746     5.7053     0.2210 C.3     
  24 C24           -1.4062    -0.3736    -2.3394 C.3     
  25 C25           -2.0538     0.5270    -3.3957 C.3     
  26 C26           -3.0366     1.4822    -2.7259 C.3     
  27 N27           -2.5707     1.8645    -1.3912 N.3     
  28 C28           -1.2885     2.5810    -1.4582 C.3     
  29 C29           -3.5839     2.6631    -0.6887 C.3     
  30 C30           -4.9683     2.0398    -0.4995 C.3     
  31 C31           -4.0249     2.1850     0.6962 C.3     
  32 H32           -0.5648    -2.4459    -1.6138 H       
  33 H33            2.9430     5.2392     0.1005 H       
  34 H34            3.4723     2.3693    -0.0049 H       
  35 H35            0.0918    -4.7512    -2.1659 H       
  36 H36            2.4155    -5.2558    -2.7962 H       
  37 H37            4.0951    -3.4602    -2.8785 H       
  38 H38            3.4574    -1.1475    -2.3350 H       
  39 H39            4.7186     3.2340     2.7033 H       
  40 H40            3.3903     3.2981     3.8865 H       
  41 H41            3.2105     2.3394     2.3976 H       
  42 H42            3.2595     6.6121     2.1827 H       
  43 H43            3.3864     5.8066     3.7649 H       
  44 H44            4.7382     5.7181     2.6102 H       
  45 H45            5.0439     6.4480     0.6994 H       
  46 H46            1.1110     3.5794     1.8527 H       
  47 H47            1.2908     4.5382     3.3416 H       
  48 H48            1.1234     5.3575     1.7703 H       
  49 H49            7.5087     5.0914     0.9462 H       
  50 H50            7.1735     5.3352    -0.7848 H       
  51 H51            7.3118     6.7387     0.3012 H       
  52 H52           -1.1158    -1.3198    -2.7959 H       
  53 H53           -2.1169    -0.5596    -1.5341 H       
  54 H54           -1.2805     1.1013    -3.9059 H       
  55 H55           -2.5847    -0.0893    -4.1213 H       
  56 H56           -3.1397     2.3776    -3.3390 H       
  57 H57           -4.0076     0.9946    -2.6400 H       
  58 H58           -1.2139     3.2736    -0.6199 H       
  59 H59           -1.2287     3.1341    -2.3956 H       
  60 H60           -3.5352     3.7388    -0.8582 H       
  61 H61           -5.8304     2.7054    -0.5442 H       
  62 H62           -5.1273     1.0371    -0.8964 H       
  63 H63           -3.5631     1.2778     1.0860 H       
  64 H64           -4.2662     2.9461     1.4382 H       
@<TRIPOS>BOND
   1    1    2 1
   2    1    3 2
   3    1   28 1
   4    2   24 1
   5    2    5 1
   6    3    4 1
   7    3    8 1
   8    4    5 2
   9    5    6 1
  10    6    7 ar
  11    6   15 ar
  12    7   12 ar
  13    7   32 1
  14    8    9 2
  15    8   11 am
  16   10   11 1
  17   10   17 1
  18   10   19 1
  19   10   33 1
  20   11   34 1
  21   12   13 ar
  22   12   35 1
  23   13   14 ar
  24   13   36 1
  25   14   15 ar
  26   14   37 1
  27   15   38 1
  28   16   17 1
  29   16   39 1
  30   16   40 1
  31   16   41 1
  32   17   21 1
  33   17   18 1
  34   18   42 1
  35   18   43 1
  36   18   44 1
  37   19   20 am
  38   19   22 2
  39   20   23 1
  40   20   45 1
  41   21   46 1
  42   21   47 1
  43   21   48 1
  44   23   49 1
  45   23   50 1
  46   23   51 1
  47   24   25 1
  48   24   52 1
  49   24   53 1
  50   25   26 1
  51   25   54 1
  52   25   55 1
  53   26   27 1
  54   26   56 1
  55   26   57 1
  56   27   28 1
  57   27   29 1
  58   28   58 1
  59   28   59 1
  60   29   30 1
  61   29   31 1
  62   29   60 1
  63   30   31 1
  64   30   61 1
  65   30   62 1
  66   31   63 1
  67   31   64 1

#	End of record

