#	Name: ASD02448014
#	Creating user name:	WinNT
#	Creation time:	15. 06. 2019 20:21

#	Modifying user name:	WinNT
#	Modification time:	15. 06. 2019 20:21

#	Program:	/corina/corina34_cracker 3.40 0067  02.08.2006

@<TRIPOS>MOLECULE
ASD02448014
  78   84    0    0    0
SMALL
NO_CHARGES


@<TRIPOS>ATOM
   1 C1             3.3170    -7.4095    -1.0942 C.ar    
   2 C2             2.8024    -6.2970    -0.4593 C.ar    
   3 C3             2.1986    -5.2911    -1.2016 C.ar    
   4 C4             2.1124    -5.4034    -2.5826 C.ar    
   5 C5             2.6271    -6.5154    -3.2184 C.ar    
   6 C6             3.2309    -7.5223    -2.4760 C.ar    
   7 N7             3.7527    -8.6485    -3.1196 N.am    
   8 C8             4.8224    -9.5400    -2.6528 C.3     
   9 C9             5.0865   -10.6338    -3.6367 C.2     
  10 N10            4.3179   -10.5992    -4.7344 N.am    
  11 S11            3.2979    -9.2917    -4.5902 S.o2    
  12 O12            5.9305   -11.4858    -3.4562 O.2     
  13 O13            1.9800    -9.8023    -4.4431 O.2     
  14 O14            3.6776    -8.3518    -5.5860 O.2     
  15 N15            1.6748    -4.1605    -0.5556 N.pl3   
  16 C16            0.7433    -4.1577     0.4483 C.2     
  17 C17            2.0019    -2.8660    -0.8059 C.2     
  18 N18            1.3134    -2.0955    -0.0104 N.2     
  19 C19            0.5269    -2.8572     0.7765 C.2     
  20 C20           -0.4092    -2.3629     1.8161 C.ar    
  21 C21           -0.5341    -0.9927     2.0515 C.ar    
  22 C22           -1.1705    -3.2643     2.5565 C.ar    
  23 C23           -2.0405    -2.8003     3.5224 C.ar    
  24 C24           -2.1582    -1.4401     3.7570 C.ar    
  25 C25           -1.4078    -0.5381     3.0206 C.ar    
  26 F26           -3.0114    -0.9916     4.7037 F       
  27 F27            0.1980    -0.1130     1.3336 F       
  28 C28            2.9983    -2.3969    -1.8346 C.3     
  29 C29            4.3370    -2.1830    -1.1764 C.ar    
  30 C30            5.2085    -3.2465    -1.0257 C.ar    
  31 C31            4.6919    -0.9227    -0.7303 C.ar    
  32 C32            5.9169    -0.7210    -0.1272 C.ar    
  33 C33            6.7966    -1.7898     0.0319 C.ar    
  34 C34            6.4360    -3.0562    -0.4241 C.ar    
  35 C35            8.1151    -1.5790     0.6791 C.ar    
  36 C36            8.9948    -2.6478     0.8383 C.ar    
  37 C37            8.4804    -0.3104     1.1248 C.ar    
  38 C38            9.7081    -0.1199     1.7261 C.ar    
  39 C39           10.5753    -1.1856     1.8862 C.ar    
  40 C40           10.2199    -2.4460     1.4410 C.ar    
  41 C41           11.9148    -0.9713     2.5427 C.3     
  42 C42           12.0141    -1.8436     3.7957 C.3     
  43 C43           13.3740    -1.6261     4.4621 C.3     
  44 C44           14.4877    -2.0081     3.4851 C.3     
  45 C45           14.3884    -1.1357     2.2321 C.3     
  46 C46           13.0285    -1.3533     1.5656 C.3     
  47 H47            3.7903    -8.1900    -0.5171 H       
  48 H48            2.8693    -6.2092     0.6150 H       
  49 H49            1.6423    -4.6208    -3.1597 H       
  50 H50            2.5596    -6.6028    -4.2927 H       
  51 H51            5.7342    -8.9598    -2.5108 H       
  52 H52            4.5297    -9.9803    -1.6996 H       
  53 H53            4.3485   -11.2238    -5.4759 H       
  54 H54            0.2719    -5.0218     0.8926 H       
  55 H55           -1.0804    -4.3251     2.3747 H       
  56 H56           -2.6311    -3.4991     4.0962 H       
  57 H57           -1.5028     0.5215     3.2070 H       
  58 H58            3.0943    -3.1496    -2.6171 H       
  59 H59            2.6547    -1.4596    -2.2723 H       
  60 H60            4.9278    -4.2276    -1.3792 H       
  61 H61            4.0095    -0.0949    -0.8545 H       
  62 H62            6.1932     0.2635     0.2204 H       
  63 H63            7.1138    -3.8881    -0.3029 H       
  64 H64            8.7183    -3.6324     0.4910 H       
  65 H65            7.8044     0.5225     0.9995 H       
  66 H66            9.9922     0.8629     2.0719 H       
  67 H67           10.9007    -3.2746     1.5689 H       
  68 H68           12.0194     0.0774     2.8209 H       
  69 H69           11.2207    -1.5715     4.4917 H       
  70 H70           11.9095    -2.8923     3.5175 H       
  71 H71           13.4787    -0.5774     4.7403 H       
  72 H72           13.4448    -2.2476     5.3548 H       
  73 H73           15.4566    -1.8531     3.9599 H       
  74 H74           14.3831    -3.0568     3.2069 H       
  75 H75           14.4931    -0.0870     2.5103 H       
  76 H76           15.1819    -1.4079     1.5360 H       
  77 H77           12.9238    -2.4020     1.2874 H       
  78 H78           12.9577    -0.7318     0.6730 H       
@<TRIPOS>BOND
   1    1    2 ar
   2    1    6 ar
   3    1   47 1
   4    2    3 ar
   5    2   48 1
   6    3    4 ar
   7    3   15 1
   8    4    5 ar
   9    4   49 1
  10    5    6 ar
  11    5   50 1
  12    6    7 1
  13    7    8 1
  14    7   11 am
  15    8    9 1
  16    8   51 1
  17    8   52 1
  18    9   10 am
  19    9   12 2
  20   10   11 am
  21   10   53 1
  22   11   13 2
  23   11   14 2
  24   15   16 1
  25   15   17 1
  26   16   19 2
  27   16   54 1
  28   17   18 2
  29   17   28 1
  30   18   19 1
  31   19   20 1
  32   20   21 ar
  33   20   22 ar
  34   21   27 1
  35   21   25 ar
  36   22   23 ar
  37   22   55 1
  38   23   24 ar
  39   23   56 1
  40   24   25 ar
  41   24   26 1
  42   25   57 1
  43   28   29 1
  44   28   58 1
  45   28   59 1
  46   29   30 ar
  47   29   31 ar
  48   30   34 ar
  49   30   60 1
  50   31   32 ar
  51   31   61 1
  52   32   33 ar
  53   32   62 1
  54   33   34 ar
  55   33   35 1
  56   34   63 1
  57   35   36 ar
  58   35   37 ar
  59   36   40 ar
  60   36   64 1
  61   37   38 ar
  62   37   65 1
  63   38   39 ar
  64   38   66 1
  65   39   40 ar
  66   39   41 1
  67   40   67 1
  68   41   42 1
  69   41   46 1
  70   41   68 1
  71   42   43 1
  72   42   69 1
  73   42   70 1
  74   43   44 1
  75   43   71 1
  76   43   72 1
  77   44   45 1
  78   44   73 1
  79   44   74 1
  80   45   46 1
  81   45   75 1
  82   45   76 1
  83   46   77 1
  84   46   78 1

#	End of record

