#	Name: ASD01800003
#	Creating user name:	WinNT
#	Creation time:	15. 06. 2019 19:23

#	Modifying user name:	WinNT
#	Modification time:	15. 06. 2019 19:23

#	Program:	/corina/corina34_cracker 3.40 0067  02.08.2006

@<TRIPOS>MOLECULE
ASD01800003
  47   50    0    0    0
SMALL
NO_CHARGES


@<TRIPOS>ATOM
   1 C1            -0.0228     1.3782     0.0106 C.ar    
   2 C2             0.0051    -0.0126     0.0514 C.ar    
   3 C3             1.2256    -0.6842     0.0336 C.ar    
   4 C4             2.4111     0.0313    -0.0242 C.ar    
   5 C5             2.3866     1.4164    -0.0645 C.ar    
   6 C6             1.1693     2.0937    -0.0479 C.ar    
   7 C7             1.1439     3.5770    -0.0910 C.ar    
   8 C8            -1.2639    -0.7795     0.1143 C.ar    
   9 C9             2.3364     4.2953    -0.1482 C.ar    
  10 C10            2.3070     5.6746    -0.1886 C.ar    
  11 C11            1.0966     6.3438    -0.1725 C.ar    
  12 C12           -0.0903     5.6357    -0.1158 C.ar    
  13 C13           -0.0726     4.2561    -0.0803 C.ar    
  14 C14           -1.2381    -2.1719     0.1552 C.ar    
  15 C15           -2.4213    -2.8801     0.2141 C.ar    
  16 C16           -3.6312    -2.2100     0.2325 C.ar    
  17 C17           -3.6626    -0.8278     0.1921 C.ar    
  18 C18           -2.4853    -0.1094     0.1384 C.ar    
  19 O19            3.6005    -0.6269    -0.0410 O.3     
  20 C20            3.8686    -1.3776    -1.1266 C.2     
  21 N21            5.0696    -1.9764    -1.2520 N.am    
  22 C22            5.3187    -2.8252    -2.3370 C.ar    
  23 O23            3.0278    -1.5151    -1.9931 O.2     
  24 C24            4.7635    -2.5475    -3.5791 C.ar    
  25 C25            5.0112    -3.3862    -4.6480 C.ar    
  26 C26            5.8118    -4.5026    -4.4821 C.ar    
  27 C27            6.3663    -4.7816    -3.2453 C.ar    
  28 C28            6.1260    -3.9432    -2.1744 C.ar    
  29 Cl29           6.1208    -5.5551    -5.8276 Cl      
  30 H30           -0.9678     1.9009     0.0198 H       
  31 H31            1.2479    -1.7635     0.0652 H       
  32 H32            3.3121     1.9712    -0.1091 H       
  33 H33            3.2821     3.7737    -0.1605 H       
  34 H34            3.2308     6.2324    -0.2326 H       
  35 H35            1.0782     7.4232    -0.2039 H       
  36 H36           -1.0326     6.1632    -0.1034 H       
  37 H37           -0.9999     3.7041    -0.0361 H       
  38 H38           -0.2940    -2.6962     0.1405 H       
  39 H39           -2.4024    -3.9595     0.2455 H       
  40 H40           -4.5547    -2.7681     0.2783 H       
  41 H41           -4.6101    -0.3095     0.2067 H       
  42 H42           -2.5110     0.9698     0.1069 H       
  43 H43            5.7613    -1.8192    -0.5904 H       
  44 H44            4.1383    -1.6765    -3.7090 H       
  45 H45            4.5793    -3.1708    -5.6142 H       
  46 H46            6.9906    -5.6537    -3.1182 H       
  47 H47            6.5593    -4.1612    -1.2094 H       
@<TRIPOS>BOND
   1    1    2 ar
   2    1    6 ar
   3    1   30 1
   4    2    3 ar
   5    2    8 1
   6    3    4 ar
   7    3   31 1
   8    4    5 ar
   9    4   19 1
  10    5    6 ar
  11    5   32 1
  12    6    7 1
  13    7    9 ar
  14    7   13 ar
  15    8   14 ar
  16    8   18 ar
  17    9   10 ar
  18    9   33 1
  19   10   11 ar
  20   10   34 1
  21   11   12 ar
  22   11   35 1
  23   12   13 ar
  24   12   36 1
  25   13   37 1
  26   14   15 ar
  27   14   38 1
  28   15   16 ar
  29   15   39 1
  30   16   17 ar
  31   16   40 1
  32   17   18 ar
  33   17   41 1
  34   18   42 1
  35   19   20 1
  36   20   21 am
  37   20   23 2
  38   21   22 1
  39   21   43 1
  40   22   24 ar
  41   22   28 ar
  42   24   25 ar
  43   24   44 1
  44   25   26 ar
  45   25   45 1
  46   26   27 ar
  47   26   29 1
  48   27   28 ar
  49   27   46 1
  50   28   47 1

#	End of record

