#	Name: ASD01940420
#	Creating user name:	WinNT
#	Creation time:	15. 06. 2019 20:12

#	Modifying user name:	WinNT
#	Modification time:	15. 06. 2019 20:12

#	Program:	/corina/corina34_cracker 3.40 0067  02.08.2006

@<TRIPOS>MOLECULE
ASD01940420
  49   52    0    0    0
SMALL
NO_CHARGES


@<TRIPOS>ATOM
   1 S1             1.6632     2.4733     2.6905 S.3     
   2 N2             2.1067     0.9733     3.3456 N.2     
   3 C3             2.7532     0.3128     2.4469 C.2     
   4 C4             2.9597     0.9016     1.1884 C.ar    
   5 C5             2.3960     2.1880     1.1090 C.ar    
   6 C6             2.4886     2.9462    -0.0557 C.ar    
   7 C7             3.1559     2.4164    -1.1678 C.ar    
   8 C8             3.7190     1.1315    -1.0885 C.ar    
   9 C9             3.6276     0.3957     0.0443 C.ar    
  10 C10            3.2658     3.1992    -2.4093 C.2     
  11 O11            2.7607     4.3036    -2.4786 O.2     
  12 N12            3.9260     2.6924    -3.4693 N.am    
  13 O13            4.0318     3.4455    -4.6637 O.3     
  14 C14            4.7573     2.7869    -5.7038 C.3     
  15 O15            4.9950     3.6117    -9.2739 O.3     
  16 C16            3.7217     4.1522    -8.8969 C.3     
  17 O17            3.4882     3.8619    -7.5085 O.3     
  18 C18            4.8081     3.6876    -6.9395 C.3     
  19 C19            5.5623     2.9936    -8.1011 C.3     
  20 C20            3.7223     5.6670    -9.1123 C.3     
  21 C21            2.6208     3.5156    -9.7474 C.3     
  22 N22            1.9253     4.2131    -0.1141 N.pl3   
  23 C23            0.6381     4.3829    -0.6343 C.ar    
  24 C24            0.0246     5.6307    -0.5838 C.ar    
  25 C25           -1.2475     5.7943    -1.0995 C.ar    
  26 C26           -1.9096     4.7186    -1.6647 C.ar    
  27 C27           -1.3017     3.4775    -1.7155 C.ar    
  28 C28           -0.0279     3.3083    -1.2074 C.ar    
  29 I29           -3.8376     4.9707    -2.4446 I       
  30 F30            0.6708     6.6806    -0.0312 F       
  31 H31            3.1302    -0.6769     2.6582 H       
  32 H32            4.2333     0.7236    -1.9461 H       
  33 H33            4.0700    -0.5890     0.0774 H       
  34 H34            4.3288     1.8117    -3.4140 H       
  35 H35            5.7718     2.5791    -5.3638 H       
  36 H36            4.2600     1.8505    -5.9570 H       
  37 H37            5.2602     4.6502    -6.7006 H       
  38 H38            5.3692     1.9209    -8.0994 H       
  39 H39            6.6321     3.1936    -8.0397 H       
  40 H40            3.8851     5.8838   -10.1680 H       
  41 H41            2.7623     6.0786    -8.8007 H       
  42 H42            4.5198     6.1177    -8.5216 H       
  43 H43            2.6341     2.4345    -9.6090 H       
  44 H44            1.6516     3.9093    -9.4412 H       
  45 H45            2.7924     3.7495   -10.7981 H       
  46 H46            2.4243     4.9810     0.2059 H       
  47 H47           -1.7250     6.7622    -1.0610 H       
  48 H48           -1.8217     2.6402    -2.1570 H       
  49 H49            0.4473     2.3394    -1.2518 H       
@<TRIPOS>BOND
   1    1    2 1
   2    1    5 1
   3    2    3 2
   4    3    4 1
   5    3   31 1
   6    4    5 ar
   7    4    9 ar
   8    5    6 ar
   9    6    7 ar
  10    6   22 1
  11    7    8 ar
  12    7   10 1
  13    8    9 ar
  14    8   32 1
  15    9   33 1
  16   10   11 2
  17   10   12 am
  18   12   13 1
  19   12   34 1
  20   13   14 1
  21   14   18 1
  22   14   35 1
  23   14   36 1
  24   15   16 1
  25   15   19 1
  26   16   17 1
  27   16   20 1
  28   16   21 1
  29   17   18 1
  30   18   19 1
  31   18   37 1
  32   19   38 1
  33   19   39 1
  34   20   40 1
  35   20   41 1
  36   20   42 1
  37   21   43 1
  38   21   44 1
  39   21   45 1
  40   22   23 1
  41   22   46 1
  42   23   24 ar
  43   23   28 ar
  44   24   25 ar
  45   24   30 1
  46   25   26 ar
  47   25   47 1
  48   26   27 ar
  49   26   29 1
  50   27   28 ar
  51   27   48 1
  52   28   49 1

#	End of record

