#	Name: ASD01913904
#	Creating user name:	WinNT
#	Creation time:	15. 06. 2019 20:02

#	Modifying user name:	WinNT
#	Modification time:	15. 06. 2019 20:02

#	Program:	/corina/corina34_cracker 3.40 0067  02.08.2006

@<TRIPOS>MOLECULE
ASD01913904
  43   45    0    0    0
SMALL
NO_CHARGES


@<TRIPOS>ATOM
   1 C1            -0.0173     1.4278     0.0099 C.ar    
   2 C2             0.0021    -0.0041     0.0020 C.1     
   3 C3             0.0180    -1.1779    -0.0044 C.1     
   4 C4             0.0374    -2.6098    -0.0123 C.ar    
   5 C5            -1.1552    -3.3455    -0.0049 C.ar    
   6 C6             0.0738    -5.2913    -0.0270 C.ar    
   7 N7             1.2234    -4.6330    -0.0401 N.ar    
   8 C8             1.2495    -3.3128    -0.0335 C.ar    
   9 N9            -1.0933    -4.6646    -0.0125 N.ar    
  10 C10            1.1812     2.1459     0.0023 C.ar    
  11 C11            1.1562     3.5252     0.0100 C.ar    
  12 C12           -1.2350     2.1131     0.0194 C.ar    
  13 C13           -0.0518     4.1989     0.0257 C.ar    
  14 C14           -1.2456     3.4943     0.0270 C.ar    
  15 N15            0.0926    -6.6796    -0.0350 N.am    
  16 C16            1.2125    -7.4228    -0.0551 C.2     
  17 C17            0.8606    -8.8941    -0.0483 C.3     
  18 C18           -0.6195    -8.9280     0.3982 C.3     
  19 C19           -1.1075    -7.5241    -0.0164 C.3     
  20 O20            2.3406    -6.9786    -0.0760 O.2     
  21 C21           -1.3904   -10.0212    -0.3444 C.3     
  22 C22           -0.7304    -9.1150     1.9126 C.3     
  23 O23            1.0007    -9.4479    -1.3581 O.3     
  24 C24            2.2926    -9.9992    -1.6210 C.3     
  25 F25           -2.4213     4.1596     0.0423 F       
  26 H26           -2.1103    -2.8415     0.0073 H       
  27 H27            2.1905    -2.7829    -0.0446 H       
  28 H28            2.1256     1.6221    -0.0092 H       
  29 H29            2.0824     4.0806     0.0041 H       
  30 H30           -2.1652     1.5644     0.0204 H       
  31 H31           -0.0649     5.2788     0.0320 H       
  32 H32            1.4862    -9.4327     0.6636 H       
  33 H33           -1.8289    -7.1464     0.7081 H       
  34 H34           -1.5529    -7.5580    -1.0107 H       
  35 H35           -0.9393   -10.9909    -0.1338 H       
  36 H36           -2.4285   -10.0235    -0.0118 H       
  37 H37           -1.3528    -9.8281    -1.4164 H       
  38 H38           -0.2314    -8.2884     2.4183 H       
  39 H39           -1.7816    -9.1354     2.2002 H       
  40 H40           -0.2573   -10.0545     2.1983 H       
  41 H41            2.3177   -10.3988    -2.6348 H       
  42 H42            3.0478    -9.2198    -1.5188 H       
  43 H43            2.4978   -10.7993    -0.9098 H       
@<TRIPOS>BOND
   1    1    2 1
   2    1   10 ar
   3    1   12 ar
   4    2    3 3
   5    3    4 1
   6    4    5 ar
   7    4    8 ar
   8    5    9 ar
   9    5   26 1
  10    6    7 ar
  11    6   15 1
  12    6    9 ar
  13    7    8 ar
  14    8   27 1
  15   10   11 ar
  16   10   28 1
  17   11   13 ar
  18   11   29 1
  19   12   14 ar
  20   12   30 1
  21   13   14 ar
  22   13   31 1
  23   14   25 1
  24   15   16 am
  25   15   19 1
  26   16   17 1
  27   16   20 2
  28   17   18 1
  29   17   23 1
  30   17   32 1
  31   18   19 1
  32   18   21 1
  33   18   22 1
  34   19   33 1
  35   19   34 1
  36   21   35 1
  37   21   36 1
  38   21   37 1
  39   22   38 1
  40   22   39 1
  41   22   40 1
  42   23   24 1
  43   24   41 1
  44   24   42 1
  45   24   43 1

#	End of record

