#	Name: ASD07300164
#	Creating user name:	WinNT
#	Creation time:	15. 06. 2019 21:09

#	Modifying user name:	WinNT
#	Modification time:	15. 06. 2019 21:09

#	Program:	/corina/corina34_cracker 3.40 0067  02.08.2006

@<TRIPOS>MOLECULE
ASD07300164
  46   50    0    0    0
SMALL
NO_CHARGES


@<TRIPOS>ATOM
   1 C1            -0.0123     1.4004    -0.1369 C.ar    
   2 C2             0.0088     0.0025    -0.1504 C.ar    
   3 C3             1.2263    -0.6585    -0.2151 C.ar    
   4 C4             2.3847     0.1033    -0.2642 C.ar    
   5 C5             2.2896     1.4821    -0.2472 C.ar    
   6 N6             1.1182     2.0853    -0.1853 N.ar    
   7 C7            -2.1058     0.6644    -0.0336 C.2     
   8 N8            -1.3490     1.7771    -0.0634 N.am    
   9 N9            -1.3147    -0.4240    -0.0900 N.am    
  10 O10           -3.3205     0.6449     0.0303 O.2     
  11 C11           -1.7685    -1.8169    -0.0808 C.3     
  12 C12           -1.8563    -2.3152     1.3631 C.3     
  13 C13           -1.8256     3.0883    -0.0268 C.ar    
  14 C14           -3.1948     3.3273     0.0472 C.ar    
  15 C15           -3.6687     4.6186     0.0840 C.ar    
  16 C16           -2.7721     5.6922     0.0470 C.ar    
  17 C17           -1.3964     5.4477    -0.0274 C.ar    
  18 C18           -0.9302     4.1534    -0.0585 C.ar    
  19 C19           -3.2755     7.0771     0.0857 C.2     
  20 O20           -4.4712     7.2911     0.0312 O.2     
  21 C21           -2.3269     8.2055     0.1907 C.2     
  22 N22           -1.0342     8.0897     0.3687 N.2     
  23 C23           -0.4709     9.3094     0.4189 C.ar    
  24 C24           -1.5046    10.2544     0.2582 C.ar    
  25 N25           -2.6659     9.5312     0.1106 N.pl3   
  26 C26            0.8470     9.7553     0.5879 C.ar    
  27 C27            1.1163    11.0927     0.5952 C.ar    
  28 C28            0.0970    12.0233     0.4372 C.ar    
  29 C29           -1.2071    11.6114     0.2694 C.ar    
  30 H30            1.2714    -1.7375    -0.2266 H       
  31 H31            3.3512    -0.3762    -0.3147 H       
  32 H32            3.1907     2.0763    -0.2850 H       
  33 H33           -2.7511    -1.8820    -0.5480 H       
  34 H34           -1.0609    -2.4333    -0.6354 H       
  35 H35           -0.8737    -2.2502     1.8303 H       
  36 H36           -2.5639    -1.6989     1.9178 H       
  37 H37           -2.1940    -3.3516     1.3699 H       
  38 H38           -3.8862     2.4981     0.0753 H       
  39 H39           -4.7312     4.8032     0.1410 H       
  40 H40           -0.7011     6.2736    -0.0561 H       
  41 H41            0.1317     3.9638    -0.1113 H       
  42 H42           -3.5566     9.8915    -0.0226 H       
  43 H43            1.6479     9.0414     0.7124 H       
  44 H44            2.1333    11.4319     0.7257 H       
  45 H45            0.3286    13.0782     0.4460 H       
  46 H46           -1.9945    12.3402     0.1466 H       
@<TRIPOS>BOND
   1    1    2 ar
   2    1    6 ar
   3    1    8 1
   4    2    3 ar
   5    2    9 1
   6    3    4 ar
   7    3   30 1
   8    4    5 ar
   9    4   31 1
  10    5    6 ar
  11    5   32 1
  12    7    8 am
  13    7    9 am
  14    7   10 2
  15    8   13 1
  16    9   11 1
  17   11   12 1
  18   11   33 1
  19   11   34 1
  20   12   35 1
  21   12   36 1
  22   12   37 1
  23   13   14 ar
  24   13   18 ar
  25   14   15 ar
  26   14   38 1
  27   15   16 ar
  28   15   39 1
  29   16   17 ar
  30   16   19 1
  31   17   18 ar
  32   17   40 1
  33   18   41 1
  34   19   20 2
  35   19   21 1
  36   21   22 2
  37   21   25 1
  38   22   23 1
  39   23   24 ar
  40   23   26 ar
  41   24   25 1
  42   24   29 ar
  43   25   42 1
  44   26   27 ar
  45   26   43 1
  46   27   28 ar
  47   27   44 1
  48   28   29 ar
  49   28   45 1
  50   29   46 1

#	End of record

