#	Name: ASD02198718
#	Creating user name:	WinNT
#	Creation time:	15. 06. 2019 20:20

#	Modifying user name:	WinNT
#	Modification time:	15. 06. 2019 20:20

#	Program:	/corina/corina34_cracker 3.40 0067  02.08.2006

@<TRIPOS>MOLECULE
ASD02198718
  56   60    0    0    0
SMALL
NO_CHARGES


@<TRIPOS>ATOM
   1 C1            -0.1511     1.5282    -0.2255 C.2     
   2 C2            -0.2298     0.1810    -0.0839 C.2     
   3 N3             0.8860    -0.5654     0.0762 N.pl3   
   4 N4             2.0673    -0.0684     0.1052 N.2     
   5 C5             2.2855     1.2233    -0.0205 C.2     
   6 C6             1.1338     2.1215    -0.1998 C.2     
   7 C7             0.7443    -1.9501     0.2180 C.ar    
   8 C8             1.2918    -2.5979     1.3246 C.ar    
   9 C9             1.1494    -3.9685     1.4622 C.ar    
  10 C10            0.4621    -4.6940     0.4987 C.ar    
  11 C11           -0.0824    -4.0463    -0.6037 C.ar    
  12 C12            0.0531    -2.6797    -0.7405 C.ar    
  13 C13            3.6604     1.7614     0.0181 C.2     
  14 N14            4.2572     2.5339    -0.9383 N.pl3   
  15 N15            5.5568     2.8226    -0.5038 N.2     
  16 C16            5.7471     2.2554     0.6608 C.2     
  17 C17            4.5808     1.5840     1.0277 C.2     
  18 C18            3.6738     2.9601    -2.1383 C.ar    
  19 C19            3.8619     4.2634    -2.5790 C.ar    
  20 C20            3.2857     4.6805    -3.7629 C.ar    
  21 C21            2.5221     3.8017    -4.5091 C.ar    
  22 C22            2.3325     2.5033    -4.0727 C.ar    
  23 C23            2.9108     2.0785    -2.8926 C.ar    
  24 O24            1.2804     3.3287    -0.3213 O.2     
  25 N25            0.3179    -6.0789     0.6373 N.am    
  26 C26            1.3362    -6.9553     0.5963 C.2     
  27 C27           -0.9639    -6.7606     0.8525 C.3     
  28 C28           -0.5995    -8.1690     1.3720 C.3     
  29 C29            0.8188    -8.3636     0.7905 C.3     
  30 O30            2.5005    -6.6601     0.4274 O.2     
  31 C31           -1.7942    -6.0099     1.8955 C.3     
  32 O32            1.9646    -1.8856     2.2664 O.3     
  33 C33            2.4987    -2.6152     3.3729 C.3     
  34 H34           -1.0395     2.1277    -0.3581 H       
  35 H35           -1.1961    -0.3011    -0.0990 H       
  36 H36            1.5729    -4.4726     2.3183 H       
  37 H37           -0.6164    -4.6126    -1.3524 H       
  38 H38           -0.3713    -2.1785    -1.5979 H       
  39 H39            6.6556     2.3026     1.2428 H       
  40 H40            4.4288     1.0211     1.9368 H       
  41 H41            4.4579     4.9504    -1.9965 H       
  42 H42            3.4314     5.6941    -4.1060 H       
  43 H43            2.0726     4.1302    -5.4346 H       
  44 H44            1.7353     1.8194    -4.6576 H       
  45 H45            2.7626     1.0642    -2.5525 H       
  46 H46           -1.5136    -6.8352    -0.0858 H       
  47 H47           -0.5779    -8.1894     2.4616 H       
  48 H48           -1.2886    -8.9186     0.9829 H       
  49 H49            0.7712    -8.8878    -0.1640 H       
  50 H50            1.4484    -8.9075     1.4946 H       
  51 H51           -2.0619    -5.0269     1.5080 H       
  52 H52           -2.7012    -6.5742     2.1126 H       
  53 H53           -1.2112    -5.8939     2.8091 H       
  54 H54            1.6881    -3.1125     3.9055 H       
  55 H55            3.2057    -3.3609     3.0092 H       
  56 H56            3.0098    -1.9289     4.0480 H       
@<TRIPOS>BOND
   1    1    2 2
   2    1    6 1
   3    1   34 1
   4    2    3 1
   5    2   35 1
   6    3    4 1
   7    3    7 1
   8    4    5 2
   9    5    6 1
  10    5   13 1
  11    6   24 2
  12    7    8 ar
  13    7   12 ar
  14    8    9 ar
  15    8   32 1
  16    9   10 ar
  17    9   36 1
  18   10   11 ar
  19   10   25 1
  20   11   12 ar
  21   11   37 1
  22   12   38 1
  23   13   14 1
  24   13   17 2
  25   14   15 1
  26   14   18 1
  27   15   16 2
  28   16   17 1
  29   16   39 1
  30   17   40 1
  31   18   19 ar
  32   18   23 ar
  33   19   20 ar
  34   19   41 1
  35   20   21 ar
  36   20   42 1
  37   21   22 ar
  38   21   43 1
  39   22   23 ar
  40   22   44 1
  41   23   45 1
  42   25   27 1
  43   25   26 am
  44   26   30 2
  45   26   29 1
  46   27   28 1
  47   27   31 1
  48   27   46 1
  49   28   29 1
  50   28   47 1
  51   28   48 1
  52   29   49 1
  53   29   50 1
  54   31   51 1
  55   31   52 1
  56   31   53 1
  57   32   33 1
  58   33   54 1
  59   33   55 1
  60   33   56 1

#	End of record

