#	Name: ASD02500909
#	Creating user name:	WinNT
#	Creation time:	15. 06. 2019 20:23

#	Modifying user name:	WinNT
#	Modification time:	15. 06. 2019 20:23

#	Program:	/corina/corina34_cracker 3.40 0067  02.08.2006

@<TRIPOS>MOLECULE
ASD02500909
  40   43    0    0    0
SMALL
NO_CHARGES


@<TRIPOS>ATOM
   1 C1             0.0234     0.8851    -0.8044 C.2     
   2 C2             0.2218    -0.2467    -1.6183 C.2     
   3 C3            -0.9525    -0.9677    -2.1360 C.ar    
   4 C4            -2.2046    -0.3397    -1.9798 C.ar    
   5 O5            -2.3095     0.8823    -1.4079 O.3     
   6 C6            -1.3742     1.2930    -0.5204 C.2     
   7 C7            -0.8537    -2.2108    -2.7502 C.ar    
   8 C8            -1.9962    -2.8387    -3.2013 C.ar    
   9 C9            -3.2321    -2.2314    -3.0400 C.ar    
  10 C10           -3.3406    -0.9961    -2.4367 C.ar    
  11 C11            1.2047     1.4620    -0.3875 C.2     
  12 C12            2.3143     0.8373    -0.8374 C.2     
  13 S13            1.8740    -0.5435    -1.8327 S.3     
  14 C14            3.6897     1.2515    -0.5385 C.2     
  15 N15            4.6208     0.3261    -0.2330 N.am    
  16 O16            3.9898     2.4304    -0.5665 O.2     
  17 O17           -1.6632     1.9562     0.4578 O.2     
  18 C18            6.0292     0.7088    -0.0641 C.3     
  19 C19            6.8916    -0.1695    -0.9760 C.3     
  20 C20            6.6010    -1.6430    -0.6819 C.3     
  21 C21            5.1289    -1.9426    -0.9741 C.3     
  22 C22            4.2456    -1.0834    -0.0566 C.3     
  23 C23            6.2107     2.1790    -0.4468 C.3     
  24 H24            0.1105    -2.6814    -2.8737 H       
  25 H25           -1.9278    -3.8040    -3.6808 H       
  26 H26           -4.1218    -2.7324    -3.3921 H       
  27 H27           -4.3114    -0.5380    -2.3184 H       
  28 H28            1.2394     2.3376     0.2438 H       
  29 H29            6.3263     0.5600     0.9740 H       
  30 H30            6.6562     0.0468    -2.0181 H       
  31 H31            7.9454     0.0376    -0.7901 H       
  32 H32            7.2312    -2.2703    -1.3123 H       
  33 H33            6.8131    -1.8527     0.3665 H       
  34 H34            4.9101    -1.7096    -2.0161 H       
  35 H35            4.9281    -2.9974    -0.7867 H       
  36 H36            4.3986    -1.3807     0.9809 H       
  37 H37            3.1983    -1.2182    -0.3268 H       
  38 H38            5.6934     2.8093     0.2765 H       
  39 H39            7.2725     2.4253    -0.4496 H       
  40 H40            5.7956     2.3498    -1.4401 H       
@<TRIPOS>BOND
   1    1    2 2
   2    1   11 1
   3    1    6 1
   4    2    3 1
   5    2   13 1
   6    3    4 ar
   7    3    7 ar
   8    4    5 1
   9    4   10 ar
  10    5    6 1
  11    6   17 2
  12    7    8 ar
  13    7   24 1
  14    8    9 ar
  15    8   25 1
  16    9   10 ar
  17    9   26 1
  18   10   27 1
  19   11   12 2
  20   11   28 1
  21   12   13 1
  22   12   14 1
  23   14   15 am
  24   14   16 2
  25   15   18 1
  26   15   22 1
  27   18   19 1
  28   18   23 1
  29   18   29 1
  30   19   20 1
  31   19   30 1
  32   19   31 1
  33   20   21 1
  34   20   32 1
  35   20   33 1
  36   21   22 1
  37   21   34 1
  38   21   35 1
  39   22   36 1
  40   22   37 1
  41   23   38 1
  42   23   39 1
  43   23   40 1

#	End of record

