#	Name: ASD00110003
#	Creating user name:	WinNT
#	Creation time:	15. 06. 2019 18:30

#	Modifying user name:	WinNT
#	Modification time:	15. 06. 2019 18:30

#	Program:	/corina/corina34_cracker 3.40 0067  02.08.2006

@<TRIPOS>MOLECULE
ASD00110003
 302  302    0    0    0
SMALL
NO_CHARGES


@<TRIPOS>ATOM
   1 C1             2.4051    -2.1954     6.7088 C.2     
   2 O2             2.4583    -1.1053     6.1798 O.2     
   3 N3            -0.0059    -1.8660     6.8434 N.am    
   4 C4             1.0717    -2.8626     6.9274 C.3     
   5 C5             0.8187    -3.9056     5.8184 C.3     
   6 C6            -0.0699    -3.1313     4.8093 C.3     
   7 C7            -0.9245    -2.2534     5.7573 C.3     
   8 C8             5.2837    -2.6788     5.4148 C.2     
   9 O9             4.5814    -3.4282     4.7697 O.2     
  10 N10            3.5390    -2.8124     7.0963 N.am    
  11 C11            4.8406    -2.2192     6.7799 C.3     
  12 C12            5.8687    -2.6583     7.8245 C.3     
  13 C13            5.4942    -2.0883     9.1684 C.2     
  14 O14            4.4602    -1.4677     9.2971 O.2     
  15 N15            6.3085    -2.2683    10.2272 N.am    
  16 C16            8.3941    -2.6374     3.4947 C.2     
  17 O17            9.0416    -2.2544     4.4460 O.2     
  18 N18            6.4604    -2.2572     4.9109 N.am    
  19 C19            6.8912    -2.7040     3.5838 C.3     
  20 C20            6.2762    -1.7972     2.5159 C.3     
  21 C21            4.7549    -1.9594     2.5235 C.3     
  22 C22            4.1492    -1.0663     1.4716 C.2     
  23 O23            4.8640    -0.3687     0.7836 O.2     
  24 N24            2.8132    -1.0427     1.2955 N.am    
  25 C25           11.0098    -1.6849     1.9272 C.2     
  26 O26           10.2392    -0.7715     1.7200 O.2     
  27 N27            9.0186    -3.0035     2.3578 N.am    
  28 C28           10.4821    -3.0445     2.3066 C.3     
  29 C29           10.9273    -4.0732     1.2652 C.3     
  30 C30           10.5169    -5.4521     1.7138 C.2     
  31 O31            9.8621    -5.5902     2.7197 O.2     
  32 O32           10.8789    -6.5269     0.9958 O.3     
  33 C33           14.2073    -0.3103     0.8094 C.2     
  34 O34           14.6972    -1.4116     0.6747 O.2     
  35 N35           12.3380    -1.4839     1.8181 N.am    
  36 C36           12.8510    -0.1621     1.4493 C.3     
  37 C37           12.9708     0.7065     2.7031 C.3     
  38 C38           11.5777     0.9603     3.2827 C.3     
  39 C39           11.6957     1.8159     4.5177 C.2     
  40 O40           12.7866     2.1862     4.8969 O.2     
  41 N41           10.5890     2.1695     5.2007 N.am    
  42 C42           17.2127     0.6343     1.0248 C.2     
  43 O43           16.8045     0.7238     2.1633 O.2     
  44 N44           14.8759     0.7809     0.3868 N.am    
  45 C45           16.2415     0.6498    -0.1273 C.3     
  46 C46           16.5569     1.8333    -1.0443 C.3     
  47 C47           15.6776     1.7701    -2.2665 C.2     
  48 O48           14.9518     0.8144    -2.4427 O.2     
  49 N49           15.6976     2.7755    -3.1639 N.am    
  50 C50           20.8285     0.9809     1.4361 C.2     
  51 O51           20.9859     1.3007     0.2769 O.2     
  52 N52           18.5350     0.5208     0.7900 N.am    
  53 C53           19.4792     0.5057     1.9101 C.3     
  54 C54           19.6025    -0.9191     2.4540 C.3     
  55 C55           24.2458     0.9481     2.7338 C.2     
  56 O56           23.9451     0.2307     3.6642 O.2     
  57 N57           21.8603     1.0505     2.3004 N.am    
  58 C58           23.1719     1.5125     1.8397 C.3     
  59 C59           23.2199     3.0410     1.8872 C.3     
  60 C60           22.2144     3.6142     0.8865 C.3     
  61 C61           22.2624     5.1427     0.9341 C.3     
  62 N62           21.2996     5.6915    -0.0241 N.pl3   
  63 C63           21.1641     7.0529    -0.1592 C.2     
  64 N64           20.3075     7.5412    -1.0117 N.2     
  65 N65           21.9321     7.8993     0.6050 N.pl3   
  66 C66           27.7966     1.5863     3.3235 C.2     
  67 O67           27.7893     2.5835     2.6334 O.2     
  68 N68           25.5404     1.2407     2.4994 N.am    
  69 C69           26.5843     0.6921     3.3685 C.3     
  70 C70           26.9657    -0.7088     2.8859 C.3     
  71 C71           25.7687    -1.6477     3.0487 C.3     
  72 C72           26.1501    -3.0486     2.5660 C.3     
  73 N73           25.0039    -3.9477     2.7219 N.pl3   
  74 C74           25.1102    -5.2675     2.3519 C.2     
  75 N75           26.2307    -5.7189     1.8624 N.2     
  76 N76           24.0346    -6.1112     2.4982 N.pl3   
  77 C77           31.2956     1.3458     4.3543 C.2     
  78 O78           31.1963     0.1651     4.6132 O.2     
  79 N79           28.8889     1.2776     4.0502 N.am    
  80 C80           30.0674     2.1469     4.0065 C.3     
  81 C81           29.8989     3.2856     5.0144 C.3     
  82 C82           28.7261     4.1722     4.5908 C.3     
  83 C83           28.5576     5.3109     5.5987 C.3     
  84 N84           27.4346     6.1598     5.1931 N.pl3   
  85 C85           27.0913     7.2541     5.9513 C.2     
  86 N86           27.7649     7.5363     7.0309 N.2     
  87 N87           26.0374     8.0508     5.5707 N.pl3   
  88 C88           34.7582     2.0819     5.2660 C.2     
  89 O89           34.5380     3.2703     5.3660 O.2     
  90 N90           32.5043     1.9415     4.3776 N.am    
  91 C91           33.6983     1.1628     4.7157 C.3     
  92 C92           34.2274     0.4689     3.4589 C.3     
  93 C93           33.2008    -0.5554     2.9713 C.3     
  94 C94           33.7299    -1.2492     1.7145 C.3     
  95 C95           32.7033    -2.2735     1.2269 C.3     
  96 N96           33.2113    -2.9397     0.0203 N.3     
  97 C97           38.3408     1.8655     5.9599 C.2     
  98 O98           38.4393     0.7896     5.4088 O.2     
  99 N99           35.9509     1.5831     5.6471 N.am    
 100 C100          36.9813     2.4766     6.1822 C.3     
 101 C101          36.7522     2.6793     7.6813 C.3     
 102 C102          35.4273     3.4126     7.9001 C.3     
 103 C103          35.1982     3.6153     9.3992 C.3     
 104 C104          33.8733     4.3485     9.6181 C.3     
 105 N105          33.6533     4.5432    11.0574 N.3     
 106 C106          41.7348     2.4585     7.1813 C.2     
 107 O107          41.3566     3.2593     8.0100 O.2     
 108 N108          39.4472     2.5146     6.3735 N.am    
 109 C109          40.7688     1.9205     6.1574 C.3     
 110 C110          41.2638     2.2746     4.7537 C.3     
 111 C111          40.3520     1.6233     3.7120 C.3     
 112 C112          40.8470     1.9774     2.3082 C.3     
 113 C113          39.9352     1.3260     1.2665 C.3     
 114 N114          40.4105     1.6660    -0.0813 N.3     
 115 C115          45.3625     2.4863     7.6314 C.2     
 116 O116          45.5594     2.0325     6.5241 O.2     
 117 N117          43.0191     2.0497     7.1762 N.am    
 118 C118          43.9582     2.5727     8.1716 C.3     
 119 C119          43.8537     1.7464     9.4550 C.3     
 120 C120          42.4656     1.9337    10.0705 C.3     
 121 C121          42.3626     1.1198    11.3347 C.2     
 122 O122          43.3030     0.4579    11.7052 O.2     
 123 O123          41.2262     1.1303    12.0489 O.3     
 124 C124          48.7406     2.7645     9.0003 C.2     
 125 O125          48.3358     2.7865    10.1433 O.2     
 126 N126          46.3995     2.9132     8.3790 N.am    
 127 C127          47.7646     2.8292     7.8539 C.3     
 128 C128          48.0601     4.0649     7.0015 C.3     
 129 C129          47.1520     4.0642     5.7701 C.3     
 130 C130          47.4476     5.2999     4.9178 C.3     
 131 N131          46.5781     5.2992     3.7387 N.pl3   
 132 C132          46.6639     6.3190     2.8207 C.2     
 133 N133          47.5188     7.2865     2.9994 N.2     
 134 N134          45.8479     6.3184     1.7142 N.pl3   
 135 C135          51.3322     4.0161    10.3364 C.2     
 136 O136          50.8182     4.9702     9.7918 O.2     
 137 N137          50.0634     2.6823     8.7553 N.am    
 138 C138          51.0122     2.6194     9.8697 C.3     
 139 C139          52.2971     1.9294     9.4072 C.3     
 140 C140          51.9939     0.4726     9.0511 C.3     
 141 C141          53.2788    -0.2174     8.5886 C.3     
 142 N142          52.9884    -1.6123     8.2476 N.pl3   
 143 C143          53.9962    -2.4355     7.8039 C.2     
 144 N144          55.2099    -1.9750     7.6866 N.2     
 145 N145          53.7237    -3.7445     7.4839 N.pl3   
 146 N146          52.1895     4.2051    11.3591 N.am    
 147 O147           0.6807    -0.5628     8.5023 O.2     
 148 C148          -0.1357    -0.7811     7.6324 C.2     
 149 C149          -1.2953     0.1607     7.4338 C.3     
 150 H150           1.0547    -3.3455     7.9044 H       
 151 H151           1.7565    -4.2088     5.3529 H       
 152 H152           0.2871    -4.7701     6.2161 H       
 153 H153           0.5376    -2.5143     4.1472 H       
 154 H154          -0.6978    -3.8143     4.2374 H       
 155 H155          -1.7612    -2.8278     6.1549 H       
 156 H156          -1.2858    -1.3690     5.2325 H       
 157 H157           3.4932    -3.6493     7.5846 H       
 158 H158           4.7562    -1.1325     6.7877 H       
 159 H159           5.8849    -3.7466     7.8832 H       
 160 H160           6.8556    -2.2951     7.5380 H       
 161 H161           7.1354    -2.7646    10.1243 H       
 162 H162           6.0675    -1.9014    11.0922 H       
 163 H163           7.0221    -1.6579     5.4268 H       
 164 H164           6.5627    -3.7306     3.4218 H       
 165 H165           6.5321    -0.7594     2.7293 H       
 166 H166           6.6662    -2.0735     1.5362 H       
 167 H167           4.4991    -2.9973     2.3101 H       
 168 H168           4.3650    -1.6831     3.5032 H       
 169 H169           2.2415    -1.6006     1.8458 H       
 170 H170           2.4234    -0.4678     0.6184 H       
 171 H171           8.4990    -3.2398     1.5735 H       
 172 H172          10.8721    -3.3257     3.2848 H       
 173 H173          10.4575    -3.8477     0.3078 H       
 174 H174          12.0111    -4.0341     1.1561 H       
 175 H175          10.5923    -7.3904     1.3232 H       
 176 H176          12.9543    -2.2144     1.9839 H       
 177 H177          12.1663     0.3096     0.7445 H       
 178 H178          13.5844     0.1932     3.4435 H       
 179 H179          13.4349     1.6578     2.4430 H       
 180 H180          10.9641     1.4735     2.5423 H       
 181 H181          11.1136     0.0089     3.5428 H       
 182 H182           9.7165     1.8733     4.8974 H       
 183 H183          10.6649     2.7202     5.9956 H       
 184 H184          14.4530     1.6531     0.4231 H       
 185 H185          16.3302    -0.2795    -0.6899 H       
 186 H186          16.3714     2.7656    -0.5111 H       
 187 H187          17.6032     1.7897    -1.3469 H       
 188 H188          16.2780     3.5398    -3.0230 H       
 189 H189          15.1316     2.7348    -3.9505 H       
 190 H190          18.8615     0.4492    -0.1206 H       
 191 H191          19.1180     1.1657     2.6987 H       
 192 H192          20.3050    -0.9303     3.2873 H       
 193 H193          18.6266    -1.2628     2.7968 H       
 194 H194          19.9637    -1.5791     1.6653 H       
 195 H195          21.7344     0.7947     3.2276 H       
 196 H196          23.3370     1.1754     0.8163 H       
 197 H197          22.9673     3.3814     2.8914 H       
 198 H198          24.2229     3.3812     1.6298 H       
 199 H199          22.4670     3.2738    -0.1177 H       
 200 H200          21.2114     3.2739     1.1440 H       
 201 H201          22.0098     5.4830     1.9383 H       
 202 H202          23.2654     5.4829     0.6766 H       
 203 H203          20.7578     5.0943    -0.5633 H       
 204 H204          20.2119     8.5018    -1.1069 H       
 205 H205          22.5695     7.5360     1.2394 H       
 206 H206          21.8364     8.8599     0.5097 H       
 207 H207          25.7809     1.8145     1.7552 H       
 208 H208          26.2126     0.6353     4.3916 H       
 209 H209          27.2532    -0.6654     1.8354 H       
 210 H210          27.8026    -1.0813     3.4765 H       
 211 H211          25.4812    -1.6911     4.0992 H       
 212 H212          24.9318    -1.2752     2.4580 H       
 213 H213          26.4376    -3.0052     1.5155 H       
 214 H214          26.9870    -3.4211     3.1567 H       
 215 H215          24.1701    -3.6117     3.0862 H       
 216 H216          26.3058    -6.6501     1.6013 H       
 217 H217          23.2008    -5.7753     2.8625 H       
 218 H218          24.1097    -7.0424     2.2372 H       
 219 H219          28.8948     0.4800     4.6022 H       
 220 H220          30.1759     2.5617     3.0044 H       
 221 H221          29.7018     2.8700     6.0025 H       
 222 H222          30.8115     3.8808     5.0459 H       
 223 H223          28.9232     4.5878     3.6026 H       
 224 H224          27.8135     3.5769     4.5592 H       
 225 H225          28.3605     4.8953     6.5869 H       
 226 H226          29.4702     5.9061     5.6303 H       
 227 H227          26.9333     5.9498     4.3897 H       
 228 H228          27.5227     8.3084     7.5658 H       
 229 H229          25.5361     7.8408     4.7673 H       
 230 H230          25.7952     8.8228     6.1056 H       
 231 H231          32.5837     2.8858     4.1705 H       
 232 H232          33.4430     0.4130     5.4645 H       
 233 H233          34.3989     1.2110     2.6791 H       
 234 H234          35.1643    -0.0377     3.6907 H       
 235 H235          33.0293    -1.2974     3.7511 H       
 236 H236          32.2639    -0.0487     2.7395 H       
 237 H237          33.9014    -0.5072     0.9347 H       
 238 H238          34.6668    -1.7558     1.9463 H       
 239 H239          32.5318    -3.0156     2.0067 H       
 240 H240          31.7664    -1.7669     0.9951 H       
 241 H241          32.5507    -3.6216    -0.3216 H       
 242 H242          33.4391    -2.2663    -0.6958 H       
 243 H243          36.1271     0.6326     5.5672 H       
 244 H244          36.9279     3.4389     5.6730 H       
 245 H245          36.7172     1.7097     8.1779 H       
 246 H246          37.5679     3.2711     8.0967 H       
 247 H247          35.4623     4.3822     7.4035 H       
 248 H248          34.6116     2.8208     7.4847 H       
 249 H249          35.1632     2.6456     9.8958 H       
 250 H250          36.0139     4.2070     9.8147 H       
 251 H251          33.9083     5.3182     9.1215 H       
 252 H252          33.0576     3.7568     9.2026 H       
 253 H253          32.7839     5.0258    11.2283 H       
 254 H254          33.6811     3.6629    11.5498 H       
 255 H255          39.3684     3.3751     6.8142 H       
 256 H256          40.7007     0.8371     6.2561 H       
 257 H257          41.2474     3.3569     4.6249 H       
 258 H258          42.2824     1.9088     4.6246 H       
 259 H259          40.3684     0.5410     3.8407 H       
 260 H260          39.3334     1.9891     3.8411 H       
 261 H261          40.8306     3.0596     2.1795 H       
 262 H262          41.8656     1.6115     2.1791 H       
 263 H263          39.9516     0.2437     1.3953 H       
 264 H264          38.9166     1.6919     1.3956 H       
 265 H265          39.8243     1.2472    -0.7878 H       
 266 H266          40.4659     2.6660    -0.2036 H       
 267 H267          43.3216     1.4093     6.5135 H       
 268 H268          43.7158     3.6130     8.3885 H       
 269 H269          44.0089     0.6929     9.2225 H       
 270 H270          44.6130     2.0778    10.1633 H       
 271 H271          42.3104     2.9873    10.3031 H       
 272 H272          41.7063     1.6024     9.3622 H       
 273 H273          41.2077     0.5925    12.8524 H       
 274 H274          46.2420     3.2762     9.2646 H       
 275 H275          47.8637     1.9331     7.2413 H       
 276 H276          47.8750     4.9642     7.5889 H       
 277 H277          49.1027     4.0465     6.6841 H       
 278 H278          47.3372     3.1649     5.1827 H       
 279 H279          46.1094     4.0826     6.0875 H       
 280 H280          47.2625     6.1992     5.5052 H       
 281 H281          48.4902     5.2815     4.6004 H       
 282 H282          45.9419     4.5792     3.6057 H       
 283 H283          47.5794     8.0061     2.3517 H       
 284 H284          45.2117     5.5984     1.5812 H       
 285 H285          45.9084     7.0379     1.0665 H       
 286 H286          50.3871     2.6647     7.8410 H       
 287 H287          50.5715     2.0540    10.6907 H       
 288 H288          52.6902     2.4436     8.5302 H       
 289 H289          53.0354     1.9615    10.2085 H       
 290 H290          51.6008    -0.0415     9.9281 H       
 291 H291          51.2556     0.4406     8.2498 H       
 292 H292          53.6719     0.2968     7.7116 H       
 293 H293          54.0170    -0.1853     9.3899 H       
 294 H294          52.0852    -1.9550     8.3350 H       
 295 H295          55.9209    -2.5558     7.3735 H       
 296 H296          52.8205    -4.0872     7.5712 H       
 297 H297          54.4347    -4.3254     7.1708 H       
 298 H298          52.3954     5.1041    11.6595 H       
 299 H299          52.6005     3.4421    11.7947 H       
 300 H300          -2.1349    -0.1619     8.0495 H       
 301 H301          -0.9984     1.1687     7.7235 H       
 302 H302          -1.5912     0.1565     6.3848 H       
@<TRIPOS>BOND
   1    1    2 2
   2    1   10 am
   3    1    4 1
   4    3    4 1
   5    3    7 1
   6    3  148 am
   7    4    5 1
   8    4  150 1
   9    5    6 1
  10    5  151 1
  11    5  152 1
  12    6    7 1
  13    6  153 1
  14    6  154 1
  15    7  155 1
  16    7  156 1
  17    8    9 2
  18    8   11 1
  19    8   18 am
  20   10   11 1
  21   10  157 1
  22   11   12 1
  23   11  158 1
  24   12   13 1
  25   12  159 1
  26   12  160 1
  27   13   14 2
  28   13   15 am
  29   15  161 1
  30   15  162 1
  31   16   17 2
  32   16   19 1
  33   16   27 am
  34   18   19 1
  35   18  163 1
  36   19   20 1
  37   19  164 1
  38   20   21 1
  39   20  165 1
  40   20  166 1
  41   21   22 1
  42   21  167 1
  43   21  168 1
  44   22   23 2
  45   22   24 am
  46   24  169 1
  47   24  170 1
  48   25   26 2
  49   25   28 1
  50   25   35 am
  51   27   28 1
  52   27  171 1
  53   28   29 1
  54   28  172 1
  55   29   30 1
  56   29  173 1
  57   29  174 1
  58   30   31 2
  59   30   32 1
  60   32  175 1
  61   33   34 2
  62   33   36 1
  63   33   44 am
  64   35   36 1
  65   35  176 1
  66   36   37 1
  67   36  177 1
  68   37   38 1
  69   37  178 1
  70   37  179 1
  71   38   39 1
  72   38  180 1
  73   38  181 1
  74   39   40 2
  75   39   41 am
  76   41  182 1
  77   41  183 1
  78   42   43 2
  79   42   45 1
  80   42   52 am
  81   44   45 1
  82   44  184 1
  83   45   46 1
  84   45  185 1
  85   46   47 1
  86   46  186 1
  87   46  187 1
  88   47   48 2
  89   47   49 am
  90   49  188 1
  91   49  189 1
  92   50   51 2
  93   50   53 1
  94   50   57 am
  95   52   53 1
  96   52  190 1
  97   53   54 1
  98   53  191 1
  99   54  192 1
 100   54  193 1
 101   54  194 1
 102   55   56 2
 103   55   58 1
 104   55   68 am
 105   57   58 1
 106   57  195 1
 107   58   59 1
 108   58  196 1
 109   59   60 1
 110   59  197 1
 111   59  198 1
 112   60   61 1
 113   60  199 1
 114   60  200 1
 115   61   62 1
 116   61  201 1
 117   61  202 1
 118   62   63 1
 119   62  203 1
 120   63   64 2
 121   63   65 1
 122   64  204 1
 123   65  205 1
 124   65  206 1
 125   66   67 2
 126   66   69 1
 127   66   79 am
 128   68   69 1
 129   68  207 1
 130   69   70 1
 131   69  208 1
 132   70   71 1
 133   70  209 1
 134   70  210 1
 135   71   72 1
 136   71  211 1
 137   71  212 1
 138   72   73 1
 139   72  213 1
 140   72  214 1
 141   73   74 1
 142   73  215 1
 143   74   75 2
 144   74   76 1
 145   75  216 1
 146   76  217 1
 147   76  218 1
 148   77   78 2
 149   77   80 1
 150   77   90 am
 151   79   80 1
 152   79  219 1
 153   80   81 1
 154   80  220 1
 155   81   82 1
 156   81  221 1
 157   81  222 1
 158   82   83 1
 159   82  223 1
 160   82  224 1
 161   83   84 1
 162   83  225 1
 163   83  226 1
 164   84   85 1
 165   84  227 1
 166   85   86 2
 167   85   87 1
 168   86  228 1
 169   87  229 1
 170   87  230 1
 171   88   89 2
 172   88   91 1
 173   88   99 am
 174   90   91 1
 175   90  231 1
 176   91   92 1
 177   91  232 1
 178   92   93 1
 179   92  233 1
 180   92  234 1
 181   93   94 1
 182   93  235 1
 183   93  236 1
 184   94   95 1
 185   94  237 1
 186   94  238 1
 187   95   96 1
 188   95  239 1
 189   95  240 1
 190   96  241 1
 191   96  242 1
 192   97   98 2
 193   97  100 1
 194   97  108 am
 195   99  100 1
 196   99  243 1
 197  100  101 1
 198  100  244 1
 199  101  102 1
 200  101  245 1
 201  101  246 1
 202  102  103 1
 203  102  247 1
 204  102  248 1
 205  103  104 1
 206  103  249 1
 207  103  250 1
 208  104  105 1
 209  104  251 1
 210  104  252 1
 211  105  253 1
 212  105  254 1
 213  106  107 2
 214  106  109 1
 215  106  117 am
 216  108  109 1
 217  108  255 1
 218  109  110 1
 219  109  256 1
 220  110  111 1
 221  110  257 1
 222  110  258 1
 223  111  112 1
 224  111  259 1
 225  111  260 1
 226  112  113 1
 227  112  261 1
 228  112  262 1
 229  113  114 1
 230  113  263 1
 231  113  264 1
 232  114  265 1
 233  114  266 1
 234  115  116 2
 235  115  118 1
 236  115  126 am
 237  117  118 1
 238  117  267 1
 239  118  119 1
 240  118  268 1
 241  119  120 1
 242  119  269 1
 243  119  270 1
 244  120  121 1
 245  120  271 1
 246  120  272 1
 247  121  122 2
 248  121  123 1
 249  123  273 1
 250  124  125 2
 251  124  127 1
 252  124  137 am
 253  126  127 1
 254  126  274 1
 255  127  128 1
 256  127  275 1
 257  128  129 1
 258  128  276 1
 259  128  277 1
 260  129  130 1
 261  129  278 1
 262  129  279 1
 263  130  131 1
 264  130  280 1
 265  130  281 1
 266  131  132 1
 267  131  282 1
 268  132  133 2
 269  132  134 1
 270  133  283 1
 271  134  284 1
 272  134  285 1
 273  135  136 2
 274  135  138 1
 275  135  146 am
 276  137  138 1
 277  137  286 1
 278  138  139 1
 279  138  287 1
 280  139  140 1
 281  139  288 1
 282  139  289 1
 283  140  141 1
 284  140  290 1
 285  140  291 1
 286  141  142 1
 287  141  292 1
 288  141  293 1
 289  142  143 1
 290  142  294 1
 291  143  144 2
 292  143  145 1
 293  144  295 1
 294  145  296 1
 295  145  297 1
 296  146  298 1
 297  146  299 1
 298  147  148 2
 299  148  149 1
 300  149  300 1
 301  149  301 1
 302  149  302 1

#	End of record

