#	Name: ASD01912047
#	Creating user name:	WinNT
#	Creation time:	15. 06. 2019 19:58

#	Modifying user name:	WinNT
#	Modification time:	15. 06. 2019 19:58

#	Program:	/corina/corina34_cracker 3.40 0067  02.08.2006

@<TRIPOS>MOLECULE
ASD01912047
  56   60    0    0    0
SMALL
NO_CHARGES


@<TRIPOS>ATOM
   1 C1            -0.0166     1.3754     0.0096 C.ar    
   2 C2             0.0021    -0.0041     0.0020 C.ar    
   3 C3             1.2193    -0.6823    -0.0133 C.ar    
   4 C4             2.4126     0.0365    -0.0209 C.ar    
   5 C5             2.3848     1.4162    -0.0132 C.ar    
   6 C6             1.1726     2.0865     0.0021 C.ar    
   7 C7             1.2443    -2.1663    -0.0210 C.2     
   8 N8             2.3183    -2.9230     0.0579 N.2     
   9 C9             0.1225    -3.0135    -0.1080 C.2     
  10 C10            0.5647    -4.2897    -0.0840 C.2     
  11 N11            1.9110    -4.2626     0.0174 N.pl3   
  12 C12           -0.2938    -5.5263    -0.1539 C.3     
  13 C13            2.7925    -5.4313     0.0750 C.3     
  14 C14            3.2012    -5.8215    -1.3221 C.2     
  15 N15            4.0170    -6.8768    -1.5155 N.am    
  16 O16            2.7961    -5.1860    -2.2723 O.2     
  17 C17            4.4281    -7.2747    -2.8705 C.3     
  18 C18            4.5246    -7.6573    -0.3769 C.3     
  19 C19            6.0470    -7.7735    -0.5065 C.3     
  20 N20            6.3827    -8.3154    -1.8300 N.3     
  21 C21            5.9546    -7.4067    -2.8969 C.3     
  22 C22            7.7364    -8.5869    -1.9261 C.ar    
  23 N23            8.2178    -9.0837    -3.0561 N.ar    
  24 N24            8.5211    -8.3388    -0.8877 N.ar    
  25 C25            9.8191    -8.5864    -0.9467 C.ar    
  26 C26           10.3551    -9.1112    -2.1122 C.ar    
  27 C27            9.5066    -9.3539    -3.1811 C.ar    
  28 F28            1.1498     3.4372     0.0091 F       
  29 C29            3.6750     2.1949    -0.0209 C.3     
  30 C30           -1.6628    -5.4753     0.5274 C.3     
  31 C31           -1.5670    -5.4555    -0.9995 C.3     
  32 H32           -0.9596     1.9019     0.0169 H       
  33 H33           -0.9253    -0.5575     0.0083 H       
  34 H34            3.3582    -0.4853    -0.0324 H       
  35 H35           -0.9080    -2.6987    -0.1805 H       
  36 H36            0.2442    -6.4740    -0.1321 H       
  37 H37            3.6803    -5.1883     0.6588 H       
  38 H38            2.2648    -6.2615     0.5445 H       
  39 H39            3.9733    -8.2321    -3.1248 H       
  40 H40            4.1139    -6.5152    -3.5863 H       
  41 H41            4.2741    -7.1506     0.5551 H       
  42 H42            4.0792    -8.6521    -0.3873 H       
  43 H43            6.4981    -6.7879    -0.3920 H       
  44 H44            6.4281    -8.4404     0.2669 H       
  45 H45            6.2642    -7.8076    -3.8621 H       
  46 H46            6.4104    -6.4282    -2.7458 H       
  47 H47           10.4537    -8.3817    -0.0971 H       
  48 H48           11.4116    -9.3224    -2.1874 H       
  49 H49            9.8925    -9.7624    -4.1033 H       
  50 H50            3.9767     2.3882    -1.0503 H       
  51 H51            3.5311     3.1418     0.4994 H       
  52 H52            4.4506     1.6179     0.4827 H       
  53 H53           -2.0256    -6.3896     0.9971 H       
  54 H54           -1.9425    -4.5474     1.0262 H       
  55 H55           -1.7836    -4.5146    -1.5052 H       
  56 H56           -1.8667    -6.3568    -1.5343 H       
@<TRIPOS>BOND
   1    1    2 ar
   2    1    6 ar
   3    1   32 1
   4    2    3 ar
   5    2   33 1
   6    3    4 ar
   7    3    7 1
   8    4    5 ar
   9    4   34 1
  10    5    6 ar
  11    5   29 1
  12    6   28 1
  13    7    8 2
  14    7    9 1
  15    8   11 1
  16    9   10 2
  17    9   35 1
  18   10   11 1
  19   10   12 1
  20   11   13 1
  21   12   30 1
  22   12   31 1
  23   12   36 1
  24   13   14 1
  25   13   37 1
  26   13   38 1
  27   14   15 am
  28   14   16 2
  29   15   17 1
  30   15   18 1
  31   17   21 1
  32   17   39 1
  33   17   40 1
  34   18   19 1
  35   18   41 1
  36   18   42 1
  37   19   20 1
  38   19   43 1
  39   19   44 1
  40   20   21 1
  41   20   22 1
  42   21   45 1
  43   21   46 1
  44   22   23 ar
  45   22   24 ar
  46   23   27 ar
  47   24   25 ar
  48   25   26 ar
  49   25   47 1
  50   26   27 ar
  51   26   48 1
  52   27   49 1
  53   29   50 1
  54   29   51 1
  55   29   52 1
  56   30   31 1
  57   30   53 1
  58   30   54 1
  59   31   55 1
  60   31   56 1

#	End of record

