#	Name: ASD01948247
#	Creating user name:	WinNT
#	Creation time:	15. 06. 2019 20:14

#	Modifying user name:	WinNT
#	Modification time:	15. 06. 2019 20:14

#	Program:	/corina/corina34_cracker 3.40 0067  02.08.2006

@<TRIPOS>MOLECULE
ASD01948247
  39   42    0    0    0
SMALL
NO_CHARGES


@<TRIPOS>ATOM
   1 C1            -0.0167     1.3794     0.0096 C.ar    
   2 C2             0.0021    -0.0041     0.0020 C.ar    
   3 C3             1.2073    -0.6821    -0.0127 C.ar    
   4 C4             2.3974     0.0199    -0.0204 C.ar    
   5 C5             2.3836     1.4074    -0.0132 C.ar    
   6 C6             1.1707     2.0877     0.0021 C.ar    
   7 C7             4.0363     2.4123    -2.5224 C.ar    
   8 C8             4.2823     2.5439    -1.1566 C.ar    
   9 N9             3.5899     2.1219    -0.0205 N.am    
  10 C10            4.9160     2.9430    -3.4409 C.ar    
  11 C11            6.0623     3.6175    -3.0030 C.ar    
  12 C12            6.3118     3.7515    -1.6311 C.ar    
  13 C13            5.4188     3.2125    -0.7099 C.ar    
  14 N14            5.3863     3.1782     0.6846 N.am    
  15 C15            4.2773     2.5178     1.0670 C.2     
  16 O16            3.9467     2.3105     2.2198 O.2     
  17 I17           -1.7991    -1.0739     0.0135 I       
  18 F18            4.6727     2.8122    -4.7634 F       
  19 F19            1.1528     3.4386     0.0091 F       
  20 F20            2.9338     1.7572    -2.9473 F       
  21 O21            7.4723     4.4367    -1.5225 O.3     
  22 C22            7.9138     4.7102    -2.7605 C.2     
  23 N23            7.0920     4.2333    -3.6460 N.2     
  24 S24            6.5187     3.8380     1.6968 S.o2    
  25 N25            6.0479     5.3942     2.0111 N.am    
  26 C26            5.1771     5.6794     3.1541 C.3     
  27 C27            6.5022     6.4858     1.1460 C.3     
  28 O28            6.4179     3.1323     2.9261 O.2     
  29 O29            7.7232     3.9266     0.9480 O.2     
  30 H30           -0.9594     1.9063     0.0170 H       
  31 H31            1.2183    -1.7621    -0.0179 H       
  32 H32            3.3379    -0.5111    -0.0315 H       
  33 H33            8.8216     5.2494    -2.9874 H       
  34 H34            5.7874     5.8795     4.0348 H       
  35 H35            4.5613     6.5512     2.9331 H       
  36 H36            4.5347     4.8197     3.3449 H       
  37 H37            6.1600     6.3079     0.1265 H       
  38 H38            6.0935     7.4296     1.5070 H       
  39 H39            7.5911     6.5320     1.1609 H       
@<TRIPOS>BOND
   1    1    2 ar
   2    1    6 ar
   3    1   30 1
   4    2    3 ar
   5    2   17 1
   6    3    4 ar
   7    3   31 1
   8    4    5 ar
   9    4   32 1
  10    5    6 ar
  11    5    9 1
  12    6   19 1
  13    7    8 ar
  14    7   10 ar
  15    7   20 1
  16    8    9 1
  17    8   13 ar
  18    9   15 am
  19   10   11 ar
  20   10   18 1
  21   11   12 ar
  22   11   23 1
  23   12   13 ar
  24   12   21 1
  25   13   14 1
  26   14   24 am
  27   14   15 am
  28   15   16 2
  29   21   22 1
  30   22   23 2
  31   22   33 1
  32   24   25 am
  33   24   28 2
  34   24   29 2
  35   25   26 1
  36   25   27 1
  37   26   34 1
  38   26   35 1
  39   26   36 1
  40   27   37 1
  41   27   38 1
  42   27   39 1

#	End of record

