#	Name: ASD03240584
#	Creating user name:	WinNT
#	Creation time:	15. 06. 2019 20:35

#	Modifying user name:	WinNT
#	Modification time:	15. 06. 2019 20:35

#	Program:	/corina/corina34_cracker 3.40 0067  02.08.2006

@<TRIPOS>MOLECULE
ASD03240584
  74   81    0    0    0
SMALL
NO_CHARGES


@<TRIPOS>ATOM
   1 C1            -0.0166     1.3755     0.0096 C.ar    
   2 C2             0.0021    -0.0041     0.0020 C.ar    
   3 N3             1.1422    -0.6683    -0.0054 N.ar    
   4 C4             2.3145    -0.0481    -0.0053 C.ar    
   5 C5             2.3702     1.3442    -0.0124 C.ar    
   6 C6             1.1860     2.0698     0.0018 C.ar    
   7 N7             3.4820    -0.8058     0.0229 N.pl3   
   8 C8             4.3591    -0.7188     1.1005 C.ar    
   9 C9             4.9949     0.4898     1.4040 C.ar    
  10 C10            4.7631     1.6839     0.5620 C.2     
  11 N11            3.5938     2.0276    -0.0512 N.pl3   
  12 C12            4.6053    -1.8382     1.8843 C.ar    
  13 C13            5.4651    -1.7523     2.9626 C.ar    
  14 C14            6.0855    -0.5539     3.2711 C.ar    
  15 C15            5.8558     0.5667     2.4985 C.ar    
  16 N16            5.6745     2.5944     0.2848 N.2     
  17 C17            5.1439     3.5401    -0.5064 C.2     
  18 C18            3.8218     3.2032    -0.7370 C.2     
  19 C19            2.8483     3.9522    -1.5545 C.ar    
  20 C20            2.7483     5.3403    -1.4306 C.ar    
  21 C21            2.0261     3.2774    -2.4605 C.ar    
  22 C22            1.1188     3.9842    -3.2217 C.ar    
  23 C23            1.0216     5.3583    -3.0899 C.ar    
  24 C24            1.8364     6.0339    -2.1984 C.ar    
  25 C25            5.8470     4.7296    -1.0367 C.ar    
  26 C26            0.0277     6.1233    -3.9253 C.3     
  27 N27           -1.0507     5.2743    -4.4488 N.3     
  28 C28           -0.4739     7.4145    -3.2573 C.3     
  29 C29           -0.3879     8.0723    -4.6447 C.3     
  30 C30            0.6796     7.0188    -4.9921 C.3     
  31 C31            5.5360     5.2153    -2.3083 C.ar    
  32 C32            6.8173     5.3698    -0.2632 C.ar    
  33 C33            7.4711     6.4760    -0.7568 C.ar    
  34 C34            7.1638     6.9581    -2.0301 C.ar    
  35 C35            6.1901     6.3216    -2.8014 C.ar    
  36 C36            7.8668     8.1493    -2.5605 C.ar    
  37 C37            7.5593     8.6312    -3.8339 C.ar    
  38 C38            8.8324     8.7925    -1.7844 C.ar    
  39 C39            9.4857     9.8994    -2.2762 C.ar    
  40 C40            9.1825    10.3791    -3.5532 C.ar    
  41 C41            8.2120     9.7377    -4.3275 C.ar    
  42 C42            9.8830    11.5669    -4.0818 C.2     
  43 O43           10.7238    12.1276    -3.4060 O.2     
  44 N44            9.5903    12.0292    -5.3135 N.am    
  45 H45           -0.9556     1.9091     0.0170 H       
  46 H46           -0.9306    -0.5486     0.0025 H       
  47 H47            1.2002     3.1497     0.0064 H       
  48 H48            3.6865    -1.4002    -0.7159 H       
  49 H49            4.1242    -2.7766     1.6511 H       
  50 H50            5.6540    -2.6258     3.5689 H       
  51 H51            6.7518    -0.4956     4.1191 H       
  52 H52            6.3406     1.5006     2.7416 H       
  53 H53            3.3834     5.8688    -0.7351 H       
  54 H54            2.1011     2.2051    -2.5646 H       
  55 H55            0.4828     3.4639    -3.9227 H       
  56 H56            1.7549     7.1063    -2.1005 H       
  57 H57           -0.6774     4.4523    -4.8994 H       
  58 H58           -1.6999     5.0229    -3.7184 H       
  59 H59           -1.4907     7.3400    -2.8717 H       
  60 H60            0.2253     7.8311    -2.5324 H       
  61 H61           -1.3017     7.9759    -5.2310 H       
  62 H62           -0.0046     9.0924    -4.6212 H       
  63 H63            1.6947     7.3268    -4.7416 H       
  64 H64            0.5929     6.6271    -6.0055 H       
  65 H65            4.7826     4.7228    -2.9052 H       
  66 H66            7.0546     4.9972     0.7223 H       
  67 H67            8.2216     6.9712    -0.1586 H       
  68 H68            5.9528     6.6947    -3.7867 H       
  69 H69            6.8092     8.1353    -4.4322 H       
  70 H70            9.0666     8.4216    -0.7975 H       
  71 H71           10.2323    10.3973    -1.6753 H       
  72 H72            7.9773    10.1076    -5.3147 H       
  73 H73            8.9195    11.5818    -5.8528 H       
  74 H74           10.0505    12.8094    -5.6607 H       
@<TRIPOS>BOND
   1    1    2 ar
   2    1    6 ar
   3    1   45 1
   4    2    3 ar
   5    2   46 1
   6    3    4 ar
   7    4    5 ar
   8    4    7 1
   9    5    6 ar
  10    5   11 1
  11    6   47 1
  12    7    8 1
  13    7   48 1
  14    8    9 ar
  15    8   12 ar
  16    9   10 1
  17    9   15 ar
  18   10   11 1
  19   10   16 2
  20   11   18 1
  21   12   13 ar
  22   12   49 1
  23   13   14 ar
  24   13   50 1
  25   14   15 ar
  26   14   51 1
  27   15   52 1
  28   16   17 1
  29   17   18 2
  30   17   25 1
  31   18   19 1
  32   19   20 ar
  33   19   21 ar
  34   20   24 ar
  35   20   53 1
  36   21   22 ar
  37   21   54 1
  38   22   23 ar
  39   22   55 1
  40   23   24 ar
  41   23   26 1
  42   24   56 1
  43   25   32 ar
  44   25   31 ar
  45   26   27 1
  46   26   28 1
  47   26   30 1
  48   27   57 1
  49   27   58 1
  50   28   29 1
  51   28   59 1
  52   28   60 1
  53   29   30 1
  54   29   61 1
  55   29   62 1
  56   30   63 1
  57   30   64 1
  58   31   35 ar
  59   31   65 1
  60   32   33 ar
  61   32   66 1
  62   33   34 ar
  63   33   67 1
  64   34   35 ar
  65   34   36 1
  66   35   68 1
  67   36   37 ar
  68   36   38 ar
  69   37   41 ar
  70   37   69 1
  71   38   39 ar
  72   38   70 1
  73   39   40 ar
  74   39   71 1
  75   40   41 ar
  76   40   42 1
  77   41   72 1
  78   42   43 2
  79   42   44 am
  80   44   73 1
  81   44   74 1

#	End of record

