#	Name: ASD01200166
#	Creating user name:	WinNT
#	Creation time:	15. 06. 2019 19:08

#	Modifying user name:	WinNT
#	Modification time:	15. 06. 2019 19:08

#	Program:	/corina/corina34_cracker 3.40 0067  02.08.2006

@<TRIPOS>MOLECULE
ASD01200166
  73   77    0    0    0
SMALL
NO_CHARGES


@<TRIPOS>ATOM
   1 C1            -0.6295     2.4503     0.9314 C.ar    
   2 N2            -1.0523     1.2717     0.4957 N.ar    
   3 C3            -2.2501     0.8144     0.7922 C.ar    
   4 C4            -3.1214     1.5689     1.5847 C.ar    
   5 C5            -2.6974     2.8222     2.0595 C.ar    
   6 C6            -1.4411     3.2535     1.7300 C.ar    
   7 N7             0.6436     2.8884     0.5915 N.am    
   8 C8             0.9791     4.1824     0.7631 C.2     
   9 C9             2.3946     4.6337     0.5105 C.3     
  10 S10            2.4922     6.4378     0.6729 S.3     
  11 C11            4.1679     6.8102     0.0866 C.3     
  12 N12            4.7940     5.5991    -0.4571 N.am    
  13 C13            5.0786     5.8248    -1.7521 C.2     
  14 C14            4.6626     7.1797    -2.1334 C.2     
  15 C15            4.1121     7.7995    -1.0546 C.2     
  16 C16            4.8181     7.7778    -3.4791 C.ar    
  17 C17            3.5691     9.1639    -1.0082 C.ar    
  18 O18            5.6053     5.0222    -2.4992 O.2     
  19 C19            5.0621     4.3623     0.2810 C.3     
  20 C20            6.5146     4.3206     0.6805 C.ar    
  21 C21            6.9113     4.8453     1.8967 C.ar    
  22 C22            8.2421     4.8082     2.2652 C.ar    
  23 C23            9.1810     4.2440     1.4139 C.ar    
  24 C24            8.7804     3.7183     0.1941 C.ar    
  25 C25            7.4475     3.7527    -0.1673 C.ar    
  26 O26           10.4909     4.2068     1.7739 O.3     
  27 C27           11.4172     3.7173     0.8021 C.3     
  28 C28            6.0915     8.0112    -3.9989 C.ar    
  29 C29            6.2298     8.5683    -5.2536 C.ar    
  30 C30            5.1090     8.8956    -5.9957 C.ar    
  31 C31            3.8435     8.6666    -5.4857 C.ar    
  32 C32            3.6920     8.1048    -4.2347 C.ar    
  33 C33            2.4390     9.4975    -1.7636 C.ar    
  34 C34            1.9355    10.7799    -1.7139 C.ar    
  35 C35            2.5444    11.7364    -0.9199 C.ar    
  36 C36            3.6627    11.4149    -0.1701 C.ar    
  37 C37            4.1755    10.1356    -0.2038 C.ar    
  38 O38            0.1420     4.9836     1.1207 O.2     
  39 C39           -4.4588     1.0598     1.9153 C.2     
  40 C40           -4.9017    -0.2852     1.3997 C.3     
  41 C41           -6.3235    -0.5744     1.8850 C.3     
  42 O42           -5.2067     1.7219     2.6033 O.2     
  43 H43           -2.5628    -0.1503     0.4206 H       
  44 H44           -3.3464     3.4289     2.6736 H       
  45 H45           -1.0850     4.2116     2.0788 H       
  46 H46            1.2915     2.2632     0.2305 H       
  47 H47            3.0599     4.1670     1.2370 H       
  48 H48            2.6946     4.3428    -0.4962 H       
  49 H49            4.7702     7.2103     0.9023 H       
  50 H50            4.4385     4.3299     1.1744 H       
  51 H51            4.8347     3.5048    -0.3521 H       
  52 H52            6.1800     5.2847     2.5590 H       
  53 H53            8.5515     5.2185     3.2152 H       
  54 H54            9.5094     3.2785    -0.4704 H       
  55 H55            7.1352     3.3435    -1.1168 H       
  56 H56           11.2088     2.6670     0.5983 H       
  57 H57           11.3165     4.2928    -0.1181 H       
  58 H58           12.4327     3.8186     1.1848 H       
  59 H59            6.9672     7.7567    -3.4202 H       
  60 H60            7.2151     8.7494    -5.6571 H       
  61 H61            5.2225     9.3321    -6.9770 H       
  62 H62            2.9724     8.9243    -6.0698 H       
  63 H63            2.7036     7.9262    -3.8378 H       
  64 H64            1.9630     8.7525    -2.3838 H       
  65 H65            1.0638    11.0391    -2.2965 H       
  66 H66            2.1450    12.7392    -0.8855 H       
  67 H67            4.1321    12.1671     0.4466 H       
  68 H68            5.0480     9.8864     0.3817 H       
  69 H69           -4.8837    -0.2804     0.3098 H       
  70 H70           -4.2270    -1.0567     1.7708 H       
  71 H71           -6.3415    -0.5792     2.9749 H       
  72 H72           -6.9981     0.1971     1.5139 H       
  73 H73           -6.6439    -1.5473     1.5121 H       
@<TRIPOS>BOND
   1    1    2 ar
   2    1    7 1
   3    1    6 ar
   4    2    3 ar
   5    3    4 ar
   6    3   43 1
   7    4    5 ar
   8    4   39 1
   9    5    6 ar
  10    5   44 1
  11    6   45 1
  12    7    8 am
  13    7   46 1
  14    8    9 1
  15    8   38 2
  16    9   10 1
  17    9   47 1
  18    9   48 1
  19   10   11 1
  20   11   12 1
  21   11   15 1
  22   11   49 1
  23   12   13 am
  24   12   19 1
  25   13   14 1
  26   13   18 2
  27   14   15 2
  28   14   16 1
  29   15   17 1
  30   16   28 ar
  31   16   32 ar
  32   17   33 ar
  33   17   37 ar
  34   19   20 1
  35   19   50 1
  36   19   51 1
  37   20   21 ar
  38   20   25 ar
  39   21   22 ar
  40   21   52 1
  41   22   23 ar
  42   22   53 1
  43   23   24 ar
  44   23   26 1
  45   24   25 ar
  46   24   54 1
  47   25   55 1
  48   26   27 1
  49   27   56 1
  50   27   57 1
  51   27   58 1
  52   28   29 ar
  53   28   59 1
  54   29   30 ar
  55   29   60 1
  56   30   31 ar
  57   30   61 1
  58   31   32 ar
  59   31   62 1
  60   32   63 1
  61   33   34 ar
  62   33   64 1
  63   34   35 ar
  64   34   65 1
  65   35   36 ar
  66   35   66 1
  67   36   37 ar
  68   36   67 1
  69   37   68 1
  70   39   40 1
  71   39   42 2
  72   40   41 1
  73   40   69 1
  74   40   70 1
  75   41   71 1
  76   41   72 1
  77   41   73 1

#	End of record

