#	Name: ASD06170341
#	Creating user name:	WinNT
#	Creation time:	15. 06. 2019 21:05

#	Modifying user name:	WinNT
#	Modification time:	15. 06. 2019 21:05

#	Program:	/corina/corina34_cracker 3.40 0067  02.08.2006

@<TRIPOS>MOLECULE
ASD06170341
  73   77    0    0    0
SMALL
NO_CHARGES


@<TRIPOS>ATOM
   1 N1             0.3856     0.9582     0.2974 N.am    
   2 N2            -0.1098    -0.3453     0.3971 N.pl3   
   3 C3             0.8801    -1.1864     0.7524 C.2     
   4 C4             2.0448    -0.4577     0.8939 C.2     
   5 C5             1.7020     0.9412     0.5926 C.2     
   6 C6             3.3652    -0.9768     1.2708 C.2     
   7 O7             3.5111    -2.1641     1.4943 O.2     
   8 N8             4.4158    -0.1384     1.3693 N.am    
   9 C9            -1.4997    -0.7380     0.1515 C.3     
  10 C10            5.6928    -0.6451     1.6404 C.ar    
  11 C11            6.0750    -1.8765     1.1252 C.ar    
  12 C12            8.2199    -1.6447     2.1774 C.ar    
  13 C13            7.8391    -0.4122     2.6866 C.ar    
  14 C14            6.5792     0.0866     2.4198 C.ar    
  15 O15            9.4608    -2.1351     2.4407 O.3     
  16 N16           12.3810    -1.5916    -0.4204 N.ar    
  17 C17           12.6807    -2.3271     0.6568 C.ar    
  18 C18           11.7063    -2.5379     1.6627 C.ar    
  19 C19           10.4258    -1.9607     1.5049 C.ar    
  20 C20           10.1873    -1.2124     0.3653 C.ar    
  21 C21           11.1952    -1.0512    -0.5766 C.ar    
  22 O22            2.4573     1.8952     0.6069 O.2     
  23 C23           -0.3576     2.0894    -0.0553 C.ar    
  24 C24           12.0223    -3.3099     2.7902 C.ar    
  25 C25           13.2641    -3.8531     2.9128 C.ar    
  26 C26           14.2335    -3.6515     1.9261 C.ar    
  27 C27           13.9542    -2.8985     0.8081 C.ar    
  28 C28           -0.2775     3.2425     0.7147 C.ar    
  29 C29           -1.0123     4.3579     0.3636 C.ar    
  30 C30           -1.8273     4.3274    -0.7531 C.ar    
  31 C31           -1.9096     3.1808    -1.5217 C.ar    
  32 C32           -1.1727     2.0639    -1.1795 C.ar    
  33 O33           15.4656    -4.2043     2.0726 O.3     
  34 C34           15.6949    -4.9741     3.2544 C.3     
  35 C35           -2.2481    -0.8246     1.4831 C.3     
  36 C36           -3.6950    -1.2515     1.2281 C.3     
  37 C37            0.7403    -2.6723     0.9609 C.3     
  38 N38           -2.2338     0.4861     2.1375 N.am    
  39 C39           -2.3925     0.5743     3.4729 C.2     
  40 C40           -2.3777     1.9226     4.1460 C.3     
  41 O41           -2.5471    -0.4313     4.1330 O.2     
  42 C42            7.3363    -2.3757     1.3931 C.ar    
  43 F43            7.7091    -3.5740     0.8927 F       
  44 H44            4.2874     0.8159     1.2524 H       
  45 H45           -1.9793     0.0036    -0.4873 H       
  46 H46           -1.5209    -1.7101    -0.3411 H       
  47 H47            5.3874    -2.4443     0.5159 H       
  48 H48            8.5280     0.1576     3.2925 H       
  49 H49            6.2834     1.0463     2.8171 H       
  50 H50            9.2211    -0.7558     0.2090 H       
  51 H51           10.9978    -0.4649    -1.4618 H       
  52 H52           11.2821    -3.4725     3.5596 H       
  53 H53           13.5035    -4.4466     3.7828 H       
  54 H54           14.7100    -2.7489     0.0513 H       
  55 H55            0.3583     3.2667     1.5874 H       
  56 H56           -0.9505     5.2549     0.9619 H       
  57 H57           -2.4012     5.2009    -1.0254 H       
  58 H58           -2.5476     3.1599    -2.3928 H       
  59 H59           -1.2371     1.1688    -1.7803 H       
  60 H60           15.5503    -4.3442     4.1321 H       
  61 H61           14.9940    -5.8082     3.2864 H       
  62 H62           16.7154    -5.3571     3.2462 H       
  63 H63           -1.7611    -1.5573     2.1266 H       
  64 H64           -4.1820    -0.5188     0.5846 H       
  65 H65           -3.7057    -2.2267     0.7413 H       
  66 H66           -4.2282    -1.3132     2.1768 H       
  67 H67            0.8668    -3.1864     0.0081 H       
  68 H68            1.5018    -3.0140     1.6620 H       
  69 H69           -0.2487    -2.8913     1.3635 H       
  70 H70           -2.1101     1.2904     1.6095 H       
  71 H71           -2.2287     2.7007     3.3975 H       
  72 H72           -3.3279     2.0850     4.6548 H       
  73 H73           -1.5660     1.9571     4.8726 H       
@<TRIPOS>BOND
   1    1    2 1
   2    1    5 am
   3    1   23 1
   4    2    3 1
   5    2    9 1
   6    3    4 2
   7    3   37 1
   8    4    5 1
   9    4    6 1
  10    5   22 2
  11    6    7 2
  12    6    8 am
  13    8   10 1
  14    8   44 1
  15    9   35 1
  16    9   45 1
  17    9   46 1
  18   10   11 ar
  19   10   14 ar
  20   11   42 ar
  21   11   47 1
  22   12   13 ar
  23   12   15 1
  24   12   42 ar
  25   13   14 ar
  26   13   48 1
  27   14   49 1
  28   15   19 1
  29   16   17 ar
  30   16   21 ar
  31   17   18 ar
  32   17   27 ar
  33   18   19 ar
  34   18   24 ar
  35   19   20 ar
  36   20   21 ar
  37   20   50 1
  38   21   51 1
  39   23   28 ar
  40   23   32 ar
  41   24   25 ar
  42   24   52 1
  43   25   26 ar
  44   25   53 1
  45   26   27 ar
  46   26   33 1
  47   27   54 1
  48   28   29 ar
  49   28   55 1
  50   29   30 ar
  51   29   56 1
  52   30   31 ar
  53   30   57 1
  54   31   32 ar
  55   31   58 1
  56   32   59 1
  57   33   34 1
  58   34   60 1
  59   34   61 1
  60   34   62 1
  61   35   36 1
  62   35   38 1
  63   35   63 1
  64   36   64 1
  65   36   65 1
  66   36   66 1
  67   37   67 1
  68   37   68 1
  69   37   69 1
  70   38   39 am
  71   38   70 1
  72   39   40 1
  73   39   41 2
  74   40   71 1
  75   40   72 1
  76   40   73 1
  77   42   43 1

#	End of record

