#	Name: ASD04500005
#	Creating user name:	WinNT
#	Creation time:	15. 06. 2019 20:49

#	Modifying user name:	WinNT
#	Modification time:	15. 06. 2019 20:49

#	Program:	/corina/corina34_cracker 3.40 0067  02.08.2006

@<TRIPOS>MOLECULE
ASD04500005
  81   87    0    0    0
SMALL
NO_CHARGES


@<TRIPOS>ATOM
   1 C1             0.9852    -0.4945     1.2336 C.ar    
   2 C2             1.2652    -1.8309     1.2827 C.ar    
   3 C3             2.5718    -2.2832     1.4142 C.ar    
   4 C4             3.6176    -1.3898     1.4981 C.ar    
   5 C5             3.3549    -0.0221     1.4496 C.ar    
   6 C6             2.0246     0.4367     1.3158 C.ar    
   7 N7             1.7884     1.7631     1.2705 N.2     
   8 C8             4.4295     0.9779     1.5339 C.2     
   9 N9             4.0739     2.2826     1.4772 N.am    
  10 C10            2.7590     2.6367     1.3467 C.2     
  11 O11            5.5945     0.6451     1.6506 O.2     
  12 C12            2.4190     4.0742     1.2897 C.ar    
  13 C13            1.3636     5.9242     0.1729 C.ar    
  14 C14            1.6788     4.5764     0.2193 C.ar    
  15 C15            2.8325     4.9329     2.3099 C.ar    
  16 C16            2.5130     6.2739     2.2537 C.ar    
  17 C17            1.7833     6.7712     1.1895 C.ar    
  18 C18            5.1033     3.3219     1.5570 C.3     
  19 N19            8.3235     5.9940    -1.0760 N.pl3   
  20 N20            8.1745     7.1654    -0.5637 N.2     
  21 N21            9.2727     7.8297    -0.6484 N.2     
  22 C22           10.1957     7.0665    -1.2443 C.2     
  23 C23            9.5961     5.8855    -1.5230 C.2     
  24 C24           11.6222     7.4470    -1.5464 C.3     
  25 N25           11.6762     8.1659    -2.8218 N.am    
  26 C26           11.4304     9.5112    -2.8546 C.2     
  27 N27           11.4615    10.2158    -3.9562 N.2     
  28 C28           11.7425     9.6535    -5.1487 C.ar    
  29 C29           12.0106     8.2667    -5.2111 C.ar    
  30 C30           11.9745     7.4959    -3.9593 C.2     
  31 C31           11.7752    10.4100    -6.3235 C.ar    
  32 C32           12.0668     9.7974    -7.5213 C.ar    
  33 C33           12.3290     8.4349    -7.5783 C.ar    
  34 C34           12.3071     7.6681    -6.4334 C.ar    
  35 C35           11.1144    10.2008    -1.5859 C.ar    
  36 C36           11.9877    10.1067    -0.5011 C.ar    
  37 C37           11.6895    10.7517     0.6819 C.ar    
  38 C38           10.5275    11.4918     0.7968 C.ar    
  39 C39            9.6524    11.5908    -0.2767 C.ar    
  40 C40            9.9448    10.9528    -1.4702 C.ar    
  41 O41           12.2004     6.2999    -3.9472 O.2     
  42 S42           -0.8625     6.3912    -0.6471 S.o2    
  43 C43            5.6611     3.5956     0.1589 C.3     
  44 C44            6.7362     4.6810     0.2423 C.3     
  45 C45            7.2941     4.9547    -1.1559 C.3     
  46 O46           -0.9028     7.2168     0.5087 O.2     
  47 O47           -1.0080     4.9882    -0.4749 O.2     
  48 O48           -1.2509     6.9584    -1.8908 O.2     
  49 O49            0.6431     6.4178    -0.8684 O.3     
  50 S50            8.6667    13.7817    -0.5499 S.o2    
  51 O51            9.0690    13.5790    -1.8976 O.2     
  52 O52            9.6619    14.1324     0.4019 O.2     
  53 O53            7.3286    14.1914    -0.3035 O.2     
  54 O54            8.5112    12.3193    -0.1579 O.3     
  55 H55           -0.0357    -0.1586     1.1270 H       
  56 H56            0.4585    -2.5462     1.2188 H       
  57 H57            2.7698    -3.3442     1.4513 H       
  58 H58            4.6318    -1.7465     1.6010 H       
  59 H59            1.3529     3.9164    -0.5710 H       
  60 H60            3.4019     4.5477     3.1428 H       
  61 H61            2.8334     6.9372     3.0435 H       
  62 H62            1.5364     7.8219     1.1507 H       
  63 H63            4.6664     4.2359     1.9592 H       
  64 H64            5.9087     2.9861     2.2103 H       
  65 H65           10.0435     5.0286    -2.0046 H       
  66 H66           12.0034     8.0880    -0.7515 H       
  67 H67           12.2326     6.5462    -1.6109 H       
  68 H68           11.5723    11.4703    -6.2918 H       
  69 H69           12.0916    10.3836    -8.4280 H       
  70 H70           12.5555     7.9728    -8.5278 H       
  71 H71           12.5195     6.6104    -6.4834 H       
  72 H72           12.8962     9.5291    -0.5875 H       
  73 H73           12.3659    10.6779     1.5206 H       
  74 H74           10.2993    11.9944     1.7251 H       
  75 H75            9.2651    11.0293    -2.3060 H       
  76 H76            6.0981     2.6816    -0.2433 H       
  77 H77            4.8558     3.9313    -0.4943 H       
  78 H78            6.2993     5.5950     0.6445 H       
  79 H79            7.5416     4.3453     0.8955 H       
  80 H80            6.4887     5.2905    -1.8091 H       
  81 H81            7.7310     4.0407    -1.5581 H       
@<TRIPOS>BOND
   1    1    2 ar
   2    1    6 ar
   3    1   55 1
   4    2    3 ar
   5    2   56 1
   6    3    4 ar
   7    3   57 1
   8    4    5 ar
   9    4   58 1
  10    5    6 ar
  11    5    8 1
  12    6    7 1
  13    7   10 2
  14    8    9 am
  15    8   11 2
  16    9   10 1
  17    9   18 1
  18   10   12 1
  19   12   15 ar
  20   12   14 ar
  21   13   14 ar
  22   13   17 ar
  23   13   49 1
  24   14   59 1
  25   15   16 ar
  26   15   60 1
  27   16   17 ar
  28   16   61 1
  29   17   62 1
  30   18   43 1
  31   18   63 1
  32   18   64 1
  33   19   20 1
  34   19   23 1
  35   19   45 1
  36   20   21 2
  37   21   22 1
  38   22   23 2
  39   22   24 1
  40   23   65 1
  41   24   25 1
  42   24   66 1
  43   24   67 1
  44   25   26 1
  45   25   30 am
  46   26   27 2
  47   26   35 1
  48   27   28 1
  49   28   31 ar
  50   28   29 ar
  51   29   30 1
  52   29   34 ar
  53   30   41 2
  54   31   32 ar
  55   31   68 1
  56   32   33 ar
  57   32   69 1
  58   33   34 ar
  59   33   70 1
  60   34   71 1
  61   35   36 ar
  62   35   40 ar
  63   36   37 ar
  64   36   72 1
  65   37   38 ar
  66   37   73 1
  67   38   39 ar
  68   38   74 1
  69   39   40 ar
  70   39   54 1
  71   40   75 1
  72   42   46 2
  73   42   47 2
  74   42   48 2
  75   42   49 1
  76   43   44 1
  77   43   76 1
  78   43   77 1
  79   44   45 1
  80   44   78 1
  81   44   79 1
  82   45   80 1
  83   45   81 1
  84   50   51 2
  85   50   52 2
  86   50   53 2
  87   50   54 1

#	End of record

