#	Name: ASD02610045
#	Creating user name:	WinNT
#	Creation time:	15. 06. 2019 20:25

#	Modifying user name:	WinNT
#	Modification time:	15. 06. 2019 20:25

#	Program:	/corina/corina34_cracker 3.40 0067  02.08.2006

@<TRIPOS>MOLECULE
ASD02610045
  55   58    0    0    0
SMALL
NO_CHARGES


@<TRIPOS>ATOM
   1 C1             0.4337     1.4852     1.1370 C.ar    
   2 C2             1.2635     1.6582     0.0462 C.ar    
   3 C3             0.7776     1.4567    -1.2325 C.ar    
   4 C4            -0.5397     1.0823    -1.4229 C.ar    
   5 C5            -1.3737     0.9085    -0.3355 C.ar    
   6 C6            -0.8867     1.1035     0.9489 C.ar    
   7 O7            -1.7052     0.9331     2.0203 O.3     
   8 C8            -1.5410    -0.2674     2.7777 C.3     
   9 C9            -1.4552     0.0519     4.2828 C.3     
  10 C10           -2.7966    -1.1641     2.6511 C.3     
  11 O11           -3.9346    -0.3952     2.2561 O.3     
  12 C12           -2.9633    -1.6956     4.0975 C.3     
  13 O13           -2.5870    -0.5676     4.9163 O.3     
  14 N14           -4.3555    -2.0752     4.3504 N.pl3   
  15 C15           -0.1586    -0.5174     4.8623 C.3     
  16 C16           -4.9354    -3.2817     4.0498 C.ar    
  17 C17           -6.2721    -3.1847     4.4713 C.ar    
  18 N18           -6.4359    -1.9472     4.9976 N.2     
  19 C19           -5.3107    -1.2965     4.9329 C.2     
  20 N20           -4.5144    -4.4123     3.4918 N.ar    
  21 C21           -5.3353    -5.4291     3.3347 C.ar    
  22 N22           -6.5995    -5.3849     3.7145 N.ar    
  23 C23           -7.1101    -4.2969     4.2814 C.ar    
  24 N24           -8.4360    -4.2601     4.6760 N.pl3   
  25 O25           -0.0443    -0.1393     6.2357 O.3     
  26 P26            1.2012    -0.5665     7.1620 P.3     
  27 O27            1.3605    -2.1030     7.1345 O.co2   
  28 O28            2.4913     0.0946     6.6274 O.co2   
  29 O29            0.9366    -0.0814     8.6742 O.3     
  30 P30            1.6015    -0.4395    10.0962 P.3     
  31 O31            3.1355    -0.6946     9.9060 O.co2   
  32 O32            1.3897     0.7551    11.0873 O.co2   
  33 O33            0.9262    -1.7275    10.6788 O.co2   
  34 N34           -2.7841     0.5084    -0.5401 N.pl3   
  35 O35           -3.0649    -0.3227    -1.3850 O.2     
  36 O36           -3.6638     1.0105     0.1363 O.2     
  37 N37            1.6690     1.6427    -2.3995 N.pl3   
  38 O38            2.8294     1.9730    -2.2329 O.2     
  39 O39            1.2419     1.4656    -3.5263 O.2     
  40 N40            0.9546     1.7011     2.5056 N.pl3   
  41 O41            1.9989     1.1770     2.8495 O.2     
  42 O42            0.3388     2.4028     3.2879 O.2     
  43 H43            2.2927     1.9513     0.1923 H       
  44 H44           -0.9170     0.9259    -2.4227 H       
  45 H45           -0.6511    -0.8052     2.4505 H       
  46 H46           -1.4895     1.1306     4.4354 H       
  47 H47           -2.6213    -1.9826     1.9530 H       
  48 H48           -4.7236    -0.9244     2.0759 H       
  49 H49           -2.2980    -2.5407     4.2749 H       
  50 H50           -0.1724    -1.6045     4.7847 H       
  51 H51            0.6918    -0.1241     4.3053 H       
  52 H52           -5.1583    -0.2859     5.2820 H       
  53 H53           -4.9612    -6.3333     2.8777 H       
  54 H54           -9.0043    -5.0343     4.5398 H       
  55 H55           -8.7971    -3.4600     5.0888 H       
@<TRIPOS>BOND
   1    1    2 ar
   2    1   40 1
   3    1    6 ar
   4    2    3 ar
   5    2   43 1
   6    3    4 ar
   7    3   37 1
   8    4    5 ar
   9    4   44 1
  10    5    6 ar
  11    5   34 1
  12    6    7 1
  13    7    8 1
  14    8    9 1
  15    8   10 1
  16    8   45 1
  17    9   13 1
  18    9   15 1
  19    9   46 1
  20   10   11 1
  21   10   12 1
  22   10   47 1
  23   11   48 1
  24   12   14 1
  25   12   13 1
  26   12   49 1
  27   14   16 1
  28   14   19 1
  29   15   25 1
  30   15   50 1
  31   15   51 1
  32   16   17 ar
  33   16   20 ar
  34   17   18 1
  35   17   23 ar
  36   18   19 2
  37   19   52 1
  38   20   21 ar
  39   21   22 ar
  40   21   53 1
  41   22   23 ar
  42   23   24 1
  43   24   54 1
  44   24   55 1
  45   25   26 1
  46   26   27 ar
  47   26   28 ar
  48   26   29 1
  49   29   30 1
  50   30   31 ar
  51   30   32 ar
  52   30   33 ar
  53   34   35 2
  54   34   36 2
  55   37   38 2
  56   37   39 2
  57   40   41 2
  58   40   42 2

#	End of record

