#	Name: ASD04910150
#	Creating user name:	WinNT
#	Creation time:	15. 06. 2019 20:55

#	Modifying user name:	WinNT
#	Modification time:	15. 06. 2019 20:55

#	Program:	/corina/corina34_cracker 3.40 0067  02.08.2006

@<TRIPOS>MOLECULE
ASD04910150
  20   21    0    0    0
SMALL
NO_CHARGES


@<TRIPOS>ATOM
   1 C1            -0.0167     1.3840     0.0097 C.ar    
   2 C2             0.0021    -0.0041     0.0020 C.ar    
   3 C3             1.2281    -0.6660    -0.0133 C.ar    
   4 C4             2.3858     0.0919    -0.0203 C.ar    
   5 C5             2.2884     1.4774    -0.0119 C.ar    
   6 N6             1.1073     2.0731     0.0026 N.ar    
   7 N7            -1.1942    -0.7288     0.0101 N.pl3   
   8 C8             4.7281     1.7946    -0.1293 C.2     
   9 N9             5.5414     2.8151    -0.0973 N.2     
  10 C10            4.8316     3.9462     0.0326 C.2     
  11 C11            3.5255     3.6195     0.0835 C.2     
  12 N12            3.4539     2.2528    -0.0190 N.pl3   
  13 Cl13           5.4834     5.5528     0.1204 Cl      
  14 H14           -0.9626     1.9051     0.0170 H       
  15 H15            1.2738    -1.7451    -0.0192 H       
  16 H16            3.3533    -0.3879    -0.0318 H       
  17 H17           -2.0442    -0.2616     0.0210 H       
  18 H18           -1.1738    -1.6985     0.0046 H       
  19 H19            5.0192     0.7596    -0.2312 H       
  20 H20            2.6946     4.3020     0.1855 H       
@<TRIPOS>BOND
   1    1    2 ar
   2    1    6 ar
   3    1   14 1
   4    2    3 ar
   5    2    7 1
   6    3    4 ar
   7    3   15 1
   8    4    5 ar
   9    4   16 1
  10    5    6 ar
  11    5   12 1
  12    7   17 1
  13    7   18 1
  14    8    9 2
  15    8   12 1
  16    8   19 1
  17    9   10 1
  18   10   11 2
  19   10   13 1
  20   11   12 1
  21   11   20 1

#	End of record

