#	Name: ASD05740061
#	Creating user name:	WinNT
#	Creation time:	15. 06. 2019 21:02

#	Modifying user name:	WinNT
#	Modification time:	15. 06. 2019 21:02

#	Program:	/corina/corina34_cracker 3.40 0067  02.08.2006

@<TRIPOS>MOLECULE
ASD05740061
  42   45    0    0    0
SMALL
NO_CHARGES


@<TRIPOS>ATOM
   1 S1            -0.0155     1.7711     0.0140 S.3     
   2 N2             2.0600    -4.2807     0.0962 N.ar    
   3 C3             0.8852    -4.8798    -0.0462 C.ar    
   4 C4             2.1847    -2.9695     0.0858 C.ar    
   5 C5             1.0585    -2.1604    -0.0791 C.ar    
   6 C6            -0.2062    -2.7647    -0.2371 C.ar    
   7 C7            -0.2817    -4.1495    -0.2168 C.ar    
   8 C8             1.1589    -0.6991    -0.0887 C.2     
   9 C9            -0.0096     0.0091     0.0168 C.2     
  10 C10           -1.2578    -0.7585     0.1329 C.2     
  11 O11           -1.3053    -1.9981    -0.4065 O.3     
  12 C12           -0.8568     2.1623    -1.4839 C.2     
  13 C13           -1.2239     1.2294    -2.3705 C.2     
  14 O14           -2.2267    -0.2893     0.7014 O.2     
  15 O15            0.8236    -6.2346    -0.0249 O.3     
  16 C16            1.9801    -6.9216     0.1430 C.2     
  17 C17            2.4906    -0.0039    -0.2088 C.3     
  18 C18           -1.1971     3.4651    -1.8357 C.2     
  19 C19           -1.8370     3.5806    -3.0035 C.2     
  20 S20           -2.0342     1.9924    -3.7320 S.3     
  21 N21           -0.8914     4.5754    -1.0241 N.am    
  22 S22           -1.9371     5.8571    -0.9462 S.o2    
  23 C23           -3.4311     5.1761    -0.1750 C.3     
  24 O24           -1.2993     6.7771    -0.0710 O.2     
  25 O25           -2.1850     6.1902    -2.3052 O.2     
  26 N26            3.1483    -6.3825     0.2915 N.2     
  27 S27            2.1076    -8.6257     0.1970 S.3     
  28 C28            3.8500    -8.4985     0.4246 C.2     
  29 C29            4.1710    -7.2037     0.4436 C.2     
  30 H30            3.1593    -2.5196     0.2049 H       
  31 H31           -1.2317    -4.6500    -0.3322 H       
  32 H32           -1.0485     0.1689    -2.2660 H       
  33 H33            2.7613     0.0831    -1.2611 H       
  34 H34            2.4224     0.9905     0.2322 H       
  35 H35            3.2511    -0.5826     0.3154 H       
  36 H36           -2.1779     4.5096    -3.4362 H       
  37 H37           -0.0684     4.5891    -0.5109 H       
  38 H38           -3.1857     4.7904     0.8145 H       
  39 H39           -4.1824     5.9604    -0.0832 H       
  40 H40           -3.8230     4.3681    -0.7929 H       
  41 H41            4.5375    -9.3242     0.5335 H       
  42 H42            5.1853    -6.8555     0.5712 H       
@<TRIPOS>BOND
   1    1    9 1
   2    1   12 1
   3    2    3 ar
   4    2    4 ar
   5    3   15 1
   6    3    7 ar
   7    4    5 ar
   8    4   30 1
   9    5    6 ar
  10    5    8 1
  11    6    7 ar
  12    6   11 1
  13    7   31 1
  14    8    9 2
  15    8   17 1
  16    9   10 1
  17   10   11 1
  18   10   14 2
  19   12   13 2
  20   12   18 1
  21   13   20 1
  22   13   32 1
  23   15   16 1
  24   16   27 1
  25   16   26 2
  26   17   33 1
  27   17   34 1
  28   17   35 1
  29   18   19 2
  30   18   21 1
  31   19   20 1
  32   19   36 1
  33   21   22 am
  34   21   37 1
  35   22   23 1
  36   22   24 2
  37   22   25 2
  38   23   38 1
  39   23   39 1
  40   23   40 1
  41   26   29 1
  42   27   28 1
  43   28   29 2
  44   28   41 1
  45   29   42 1

#	End of record

