#	Name: ASD01814283
#	Creating user name:	WinNT
#	Creation time:	15. 06. 2019 19:32

#	Modifying user name:	WinNT
#	Modification time:	15. 06. 2019 19:32

#	Program:	/corina/corina34_cracker 3.40 0067  02.08.2006

@<TRIPOS>MOLECULE
ASD01814283
  53   58    0    0    0
SMALL
NO_CHARGES


@<TRIPOS>ATOM
   1 C1            -0.0157     1.3842    -0.0996 C.ar    
   2 C2             0.0022    -0.0044    -0.0204 C.ar    
   3 C3             1.1794    -0.6879     0.0539 C.ar    
   4 C4             2.3940     0.0148     0.0508 C.ar    
   5 C5             2.3719     1.4284    -0.0300 C.ar    
   6 C6             1.1468     2.0987    -0.1050 C.ar    
   7 C7             3.6277    -0.6656     0.1271 C.ar    
   8 C8             4.8015     0.0096     0.1252 C.ar    
   9 C9             4.8358     1.4110     0.0472 C.ar    
  10 C10            3.6409     2.1507    -0.0327 C.ar    
  11 C11            6.1018     2.1530     0.0448 C.2     
  12 N12            6.0340     3.5023    -0.0334 N.am    
  13 C13            4.8319     4.1286    -0.1057 C.2     
  14 N14            3.6972     3.4903    -0.1063 N.2     
  15 C15            3.6393    -2.1701     0.2128 C.3     
  16 C16            3.5626    -2.7528    -1.1749 C.ar    
  17 C17            4.7236    -3.0144    -1.8787 C.ar    
  18 C18            4.6559    -3.5486    -3.1509 C.ar    
  19 C19            3.4217    -3.8227    -3.7222 C.ar    
  20 C20            2.2583    -3.5593    -3.0139 C.ar    
  21 C21            2.3315    -3.0303    -1.7398 C.ar    
  22 O22            7.1729     1.5764     0.1111 O.2     
  23 C23            7.2108     4.2569    -0.0393 C.2     
  24 N24            7.9358     4.6271    -1.1417 N.pl3   
  25 C25            9.0092     5.3547    -0.6901 C.2     
  26 N26            8.9357     5.4214     0.6316 N.2     
  27 C27            7.8488     4.7668     1.0463 C.2     
  28 C28            7.7657     4.4022    -2.4784 C.2     
  29 C29            8.6480     4.8907    -3.3745 C.2     
  30 C30            9.7566     5.6387    -2.9431 C.2     
  31 C31            9.9383     5.8712    -1.6152 C.2     
  32 O32            3.3526    -4.3478    -4.9737 O.3     
  33 C33            2.0484    -4.6044    -5.4984 C.3     
  34 H34           -0.9609     1.9029    -0.1621 H       
  35 H35           -0.9303    -0.5492    -0.0173 H       
  36 H36            1.1771    -1.7661     0.1153 H       
  37 H37            1.1210     3.1766    -0.1672 H       
  38 H38            5.7290    -0.5404     0.1851 H       
  39 H39            4.8160     5.2068    -0.1662 H       
  40 H40            4.5597    -2.4995     0.6948 H       
  41 H41            2.7827    -2.5074     0.7964 H       
  42 H42            5.6841    -2.8006    -1.4337 H       
  43 H43            5.5631    -3.7524    -3.7004 H       
  44 H44            1.2963    -3.7717    -3.4564 H       
  45 H45            1.4260    -2.8255    -1.1878 H       
  46 H46            7.5337     4.6548     2.0732 H       
  47 H47            6.9174     3.8281    -2.8208 H       
  48 H48            8.5018     4.7057    -4.4285 H       
  49 H49           10.4615     6.0277    -3.6629 H       
  50 H50           10.7869     6.4450    -1.2731 H       
  51 H51            1.5306    -5.3146    -4.8537 H       
  52 H52            1.4837    -3.6729    -5.5400 H       
  53 H53            2.1359    -5.0212    -6.5017 H       
@<TRIPOS>BOND
   1    1    2 ar
   2    1    6 ar
   3    1   34 1
   4    2    3 ar
   5    2   35 1
   6    3    4 ar
   7    3   36 1
   8    4    5 ar
   9    4    7 ar
  10    5    6 ar
  11    5   10 ar
  12    6   37 1
  13    7    8 ar
  14    7   15 1
  15    8    9 ar
  16    8   38 1
  17    9   10 ar
  18    9   11 1
  19   10   14 1
  20   11   12 am
  21   11   22 2
  22   12   13 1
  23   12   23 1
  24   13   14 2
  25   13   39 1
  26   15   16 1
  27   15   40 1
  28   15   41 1
  29   16   17 ar
  30   16   21 ar
  31   17   18 ar
  32   17   42 1
  33   18   19 ar
  34   18   43 1
  35   19   20 ar
  36   19   32 1
  37   20   21 ar
  38   20   44 1
  39   21   45 1
  40   23   24 1
  41   23   27 2
  42   24   25 1
  43   24   28 1
  44   25   26 2
  45   25   31 1
  46   26   27 1
  47   27   46 1
  48   28   29 2
  49   28   47 1
  50   29   30 1
  51   29   48 1
  52   30   31 2
  53   30   49 1
  54   31   50 1
  55   32   33 1
  56   33   51 1
  57   33   52 1
  58   33   53 1

#	End of record

