#	Name: ASD04590541
#	Creating user name:	WinNT
#	Creation time:	15. 06. 2019 20:51

#	Modifying user name:	WinNT
#	Modification time:	15. 06. 2019 20:51

#	Program:	/corina/corina34_cracker 3.40 0067  02.08.2006

@<TRIPOS>MOLECULE
ASD04590541
  46   49    0    0    0
SMALL
NO_CHARGES


@<TRIPOS>ATOM
   1 C1            -0.0169     1.3919     0.0097 C.ar    
   2 C2             0.0021    -0.0041     0.0020 C.ar    
   3 C3            -2.4013    -0.0383     0.0248 C.ar    
   4 C4            -2.4140     1.3672     0.0440 C.ar    
   5 C5            -1.2194     2.0733     0.0306 C.ar    
   6 N6            -3.6930    -0.4516     0.0441 N.2     
   7 C7            -4.4887     0.5897     0.0735 C.2     
   8 N8            -3.7459     1.7405     0.0747 N.pl3   
   9 C9            -5.9649     0.5309     0.1011 C.2     
  10 C10           -6.7501    -0.6450     0.1008 C.2     
  11 C11           -8.0527    -0.2722     0.1308 C.2     
  12 N12           -8.0970     1.0859     0.1494 N.pl3   
  13 N13           -6.7813     1.5657     0.1361 N.2     
  14 N14           -6.2665    -1.9638     0.0738 N.am    
  15 C15           -7.1301    -2.9985     0.0770 C.2     
  16 O16           -8.3250    -2.7911     0.1031 O.2     
  17 C17           -1.1781    -0.7176     0.0095 C.ar    
  18 O18            1.1915    -0.6643    -0.0133 O.3     
  19 C19            1.1408    -2.0924    -0.0205 C.3     
  20 C20           -6.6114    -4.4131     0.0480 C.3     
  21 C21           -6.2181    -4.8130    -1.3903 C.3     
  22 C22           -6.6322    -6.2931    -1.5222 C.3     
  23 C23           -7.2410    -6.6630    -0.1526 C.3     
  24 N24           -7.6873    -5.3672     0.4209 N.3     
  25 O25            1.1536     2.0847     0.0022 O.3     
  26 C26            1.0634     3.5109     0.0108 C.3     
  27 H27           -1.2293     3.1532     0.0368 H       
  28 H28           -4.0893     2.6474     0.0936 H       
  29 H29           -8.9043    -0.9364     0.1381 H       
  30 H30           -8.9006     1.6288     0.1719 H       
  31 H31           -5.3110    -2.1297     0.0530 H       
  32 H32           -1.1582    -1.7974     0.0031 H       
  33 H33            2.1548    -2.4919    -0.0327 H       
  34 H34            0.6232    -2.4420     0.8728 H       
  35 H35            0.6056    -2.4325    -0.9070 H       
  36 H36           -5.7585    -4.5182     0.7185 H       
  37 H37           -6.7583    -4.2028    -2.1140 H       
  38 H38           -5.1426    -4.7068    -1.5320 H       
  39 H39           -7.3757    -6.4093    -2.3108 H       
  40 H40           -5.7600    -6.9133    -1.7288 H       
  41 H41           -8.0902    -7.3338    -0.2826 H       
  42 H42           -6.4871    -7.1221     0.4870 H       
  43 H43           -7.7839    -5.4296     1.4233 H       
  44 H44            0.5192     3.8458    -0.8723 H       
  45 H45            0.5362     3.8362     0.9076 H       
  46 H46            2.0660     3.9384     0.0035 H       
@<TRIPOS>BOND
   1    1    2 ar
   2    1   25 1
   3    1    5 ar
   4    2   17 ar
   5    2   18 1
   6    3    4 ar
   7    3    6 1
   8    3   17 ar
   9    4    5 ar
  10    4    8 1
  11    5   27 1
  12    6    7 2
  13    7    8 1
  14    7    9 1
  15    8   28 1
  16    9   10 1
  17    9   13 2
  18   10   11 2
  19   10   14 1
  20   11   12 1
  21   11   29 1
  22   12   13 1
  23   12   30 1
  24   14   15 am
  25   14   31 1
  26   15   16 2
  27   15   20 1
  28   17   32 1
  29   18   19 1
  30   19   33 1
  31   19   34 1
  32   19   35 1
  33   20   21 1
  34   20   24 1
  35   20   36 1
  36   21   22 1
  37   21   37 1
  38   21   38 1
  39   22   23 1
  40   22   39 1
  41   22   40 1
  42   23   24 1
  43   23   41 1
  44   23   42 1
  45   24   43 1
  46   25   26 1
  47   26   44 1
  48   26   45 1
  49   26   46 1

#	End of record

