#	Name: ASD08070011
#	Creating user name:	WinNT
#	Creation time:	15. 06. 2019 21:14

#	Modifying user name:	WinNT
#	Modification time:	15. 06. 2019 21:14

#	Program:	/corina/corina34_cracker 3.40 0067  02.08.2006

@<TRIPOS>MOLECULE
ASD08070011
  43   44    0    0    0
SMALL
NO_CHARGES


@<TRIPOS>ATOM
   1 C1            -0.0167     1.3837     0.0096 C.ar    
   2 C2             0.0021    -0.0041     0.0020 C.ar    
   3 C3            -1.1729    -0.7247     0.0098 C.ar    
   4 C4            -2.3928    -0.0590     0.0255 C.ar    
   5 C5            -2.4059     1.3486     0.0332 C.ar    
   6 C6            -1.2041     2.0600     0.0303 C.ar    
   7 O7            -3.6730    -0.4781     0.0360 O.3     
   8 C8            -4.5221     0.5707     0.0500 C.2     
   9 C9            -3.8173     1.7315     0.0493 C.2     
  10 C10           -5.9885     0.4716     0.0633 C.2     
  11 N11           -6.5822    -0.7384     0.0625 N.am    
  12 O12           -6.6663     1.4817     0.0751 O.2     
  13 C13            1.2809     2.1499     0.0014 C.3     
  14 C14           -8.2679     0.6507    -1.9189 C.3     
  15 C15           -8.5746    -0.7385    -1.3559 C.3     
  16 C16           -8.0438    -0.8372     0.0757 C.3     
  17 C17           -8.4587    -2.1792     0.6821 C.3     
  18 C18           -8.8121    -1.1696     2.9401 C.3     
  19 C19           -8.0365    -2.2270     2.1519 C.3     
  20 C20           -8.3387    -3.6133     2.7245 C.3     
  21 H21            0.9480    -0.5252    -0.0105 H       
  22 H22           -1.1456    -1.8044     0.0034 H       
  23 H23           -1.2131     3.1400     0.0362 H       
  24 H24           -4.2180     2.7344     0.0586 H       
  25 H25           -6.0417    -1.5438     0.0531 H       
  26 H26            1.5840     2.3401    -1.0282 H       
  27 H27            1.1463     3.0982     0.5216 H       
  28 H28            2.0511     1.5655     0.5047 H       
  29 H29           -8.7491     1.4079    -1.2999 H       
  30 H30           -7.1900     0.8128    -1.9191 H       
  31 H31           -8.6460     0.7210    -2.9388 H       
  32 H32           -9.6525    -0.9006    -1.3557 H       
  33 H33           -8.0934    -1.4958    -1.9748 H       
  34 H34           -8.4574    -0.0250     0.6734 H       
  35 H35           -9.5407    -2.2910     0.6111 H       
  36 H36           -7.9733    -2.9894     0.1381 H       
  37 H37           -8.5113    -1.2037     3.9872 H       
  38 H38           -8.5968    -0.1820     2.5321 H       
  39 H39           -9.8807    -1.3698     2.8623 H       
  40 H40           -6.9679    -2.0269     2.2297 H       
  41 H41           -9.4073    -3.8135     2.6468 H       
  42 H42           -7.7861    -4.3667     2.1630 H       
  43 H43           -8.0378    -3.6474     3.7716 H       
@<TRIPOS>BOND
   1    1    2 ar
   2    1   13 1
   3    1    6 ar
   4    2    3 ar
   5    2   21 1
   6    3    4 ar
   7    3   22 1
   8    4    5 ar
   9    4    7 1
  10    5    6 ar
  11    5    9 1
  12    6   23 1
  13    7    8 1
  14    8    9 2
  15    8   10 1
  16    9   24 1
  17   10   11 am
  18   10   12 2
  19   11   16 1
  20   11   25 1
  21   13   26 1
  22   13   27 1
  23   13   28 1
  24   14   15 1
  25   14   29 1
  26   14   30 1
  27   14   31 1
  28   15   16 1
  29   15   32 1
  30   15   33 1
  31   16   17 1
  32   16   34 1
  33   17   19 1
  34   17   35 1
  35   17   36 1
  36   18   19 1
  37   18   37 1
  38   18   38 1
  39   18   39 1
  40   19   20 1
  41   19   40 1
  42   20   41 1
  43   20   42 1
  44   20   43 1

#	End of record

