#	Name: ASD01918061
#	Creating user name:	WinNT
#	Creation time:	15. 06. 2019 20:10

#	Modifying user name:	WinNT
#	Modification time:	15. 06. 2019 20:10

#	Program:	/corina/corina34_cracker 3.40 0067  02.08.2006

@<TRIPOS>MOLECULE
ASD01918061
  51   55    0    0    0
SMALL
NO_CHARGES


@<TRIPOS>ATOM
   1 C1            -0.0183     1.5017     0.0103 C.3     
   2 C2             0.0021    -0.0041     0.0020 C.2     
   3 C3             1.0848    -0.7490    -0.3315 C.2     
   4 C4             2.4147    -0.1760    -0.7428 C.3     
   5 C5             2.2106     1.2988    -1.1135 C.3     
   6 C6             1.4312     2.0041    -0.0008 C.3     
   7 N7             0.7122    -2.0350    -0.2154 N.pl3   
   8 N8            -0.5220    -2.0599     0.1629 N.2     
   9 N9            -0.9714    -0.8584     0.3003 N.2     
  10 C10            1.5578    -3.2033    -0.4730 C.3     
  11 C11            1.4450     3.4914    -0.2434 C.2     
  12 N12            1.9343     4.4056     0.5569 N.2     
  13 C13            1.7261     5.5858    -0.0695 C.2     
  14 N14            1.1284     5.3214    -1.2023 N.2     
  15 O15            0.9655     4.1250    -1.3182 O.3     
  16 C16            2.1048     6.9292     0.4341 C.ar    
  17 C17            1.8254     8.0642    -0.3247 C.ar    
  18 C18            2.1792     9.3113     0.1472 C.ar    
  19 C19            2.8120     9.4362     1.3736 C.ar    
  20 C20            3.0922     8.3103     2.1311 C.ar    
  21 C21            2.7358     7.0599     1.6697 C.ar    
  22 F22            3.1573    10.6594     1.8319 F       
  23 C23            1.6694    -4.0451     0.8012 C.3     
  24 C24            2.5032    -5.2949     0.5096 C.3     
  25 N25            1.8633    -6.0735    -0.5584 N.3     
  26 C26            1.7878    -5.3022    -1.8056 C.3     
  27 C27            0.9327    -4.0526    -1.5832 C.3     
  28 C28            2.5604    -7.3492    -0.7697 C.3     
  29 H29           -0.5404     1.8668    -0.8742 H       
  30 H30           -0.5234     1.8573     0.9084 H       
  31 H31            3.1195    -0.2525     0.0852 H       
  32 H32            2.7990    -0.7216    -1.6046 H       
  33 H33            3.1809     1.7795    -1.2381 H       
  34 H34            1.6506     1.3646    -2.0463 H       
  35 H35            1.8973     1.7891     0.9607 H       
  36 H36            2.5504    -2.8740    -0.7801 H       
  37 H37            1.3328     7.9676    -1.2810 H       
  38 H38            1.9630    10.1914    -0.4402 H       
  39 H39            3.5862     8.4120     3.0861 H       
  40 H40            2.9502     6.1832     2.2629 H       
  41 H41            2.1528    -3.4594     1.5831 H       
  42 H42            0.6733    -4.3408     1.1304 H       
  43 H43            3.5034    -4.9986     0.1937 H       
  44 H44            2.5726    -5.9036     1.4112 H       
  45 H45            2.7915    -5.0059    -2.1107 H       
  46 H46            1.3377    -5.9161    -2.5857 H       
  47 H47           -0.0750    -4.3484    -1.2915 H       
  48 H48            0.8898    -3.4722    -2.5049 H       
  49 H49            2.5368    -7.9330     0.1505 H       
  50 H50            2.0659    -7.9059    -1.5658 H       
  51 H51            3.5955    -7.1555    -1.0506 H       
@<TRIPOS>BOND
   1    1    2 1
   2    1    6 1
   3    1   29 1
   4    1   30 1
   5    2    9 1
   6    2    3 2
   7    3    4 1
   8    3    7 1
   9    4    5 1
  10    4   31 1
  11    4   32 1
  12    5    6 1
  13    5   33 1
  14    5   34 1
  15    6   11 1
  16    6   35 1
  17    7    8 1
  18    7   10 1
  19    8    9 2
  20   10   23 1
  21   10   27 1
  22   10   36 1
  23   11   12 2
  24   11   15 1
  25   12   13 1
  26   13   14 2
  27   13   16 1
  28   14   15 1
  29   16   17 ar
  30   16   21 ar
  31   17   18 ar
  32   17   37 1
  33   18   19 ar
  34   18   38 1
  35   19   20 ar
  36   19   22 1
  37   20   21 ar
  38   20   39 1
  39   21   40 1
  40   23   24 1
  41   23   41 1
  42   23   42 1
  43   24   25 1
  44   24   43 1
  45   24   44 1
  46   25   26 1
  47   25   28 1
  48   26   27 1
  49   26   45 1
  50   26   46 1
  51   27   47 1
  52   27   48 1
  53   28   49 1
  54   28   50 1
  55   28   51 1

#	End of record

