#	Name: ASD00069057
#	Creating user name:	WinNT
#	Creation time:	15. 06. 2019 18:29

#	Modifying user name:	WinNT
#	Modification time:	15. 06. 2019 18:29

#	Program:	/corina/corina34_cracker 3.40 0067  02.08.2006

@<TRIPOS>MOLECULE
ASD00069057
  31   33    0    0    0
SMALL
NO_CHARGES


@<TRIPOS>ATOM
   1 C1            -0.0168     1.3853     0.0097 C.ar    
   2 C2             0.0021    -0.0041     0.0020 C.ar    
   3 C3             1.2007    -0.6843    -0.0131 C.ar    
   4 C4             2.3941     0.0296    -0.0207 C.ar    
   5 C5             2.3773     1.4378    -0.0130 C.ar    
   6 C6             1.1570     2.1049     0.0023 C.ar    
   7 C7             3.8230    -0.3185    -0.0368 C.2     
   8 N8             4.4822     0.8235    -0.0372 N.2     
   9 N9             3.6904     1.8338    -0.0239 N.pl3   
  10 C10            4.3993    -1.6661    -0.0493 C.2     
  11 O11            5.6039    -1.8106    -0.0621 O.2     
  12 Br12          -1.6255    -0.9667     0.0131 Br      
  13 C13            4.1325     3.2305    -0.0216 C.3     
  14 O14            5.1940     3.3928     0.9213 O.3     
  15 C15            5.6849     4.7310     1.0227 C.3     
  16 C16            6.2449     5.1716    -0.3323 C.3     
  17 C17            5.1462     5.0528    -1.3931 C.3     
  18 C18            4.6301     3.6109    -1.4185 C.3     
  19 H19           -0.9627     1.9065     0.0170 H       
  20 H20            1.2130    -1.7642    -0.0187 H       
  21 H21            1.1302     3.1846     0.0080 H       
  22 H22            3.7517    -2.5304    -0.0471 H       
  23 H23            3.2985     3.8753     0.2555 H       
  24 H24            4.8713     5.3956     1.3133 H       
  25 H25            6.4743     4.7728     1.7732 H       
  26 H26            6.5795     6.2071    -0.2689 H       
  27 H27            7.0848     4.5325    -0.6046 H       
  28 H28            4.3274     5.7289    -1.1472 H       
  29 H29            5.5535     5.3116    -2.3704 H       
  30 H30            5.4374     2.9402    -1.7127 H       
  31 H31            3.8099     3.5301    -2.1318 H       
@<TRIPOS>BOND
   1    1    2 ar
   2    1    6 ar
   3    1   19 1
   4    2    3 ar
   5    2   12 1
   6    3    4 ar
   7    3   20 1
   8    4    5 ar
   9    4    7 1
  10    5    6 ar
  11    5    9 1
  12    6   21 1
  13    7    8 2
  14    7   10 1
  15    8    9 1
  16    9   13 1
  17   10   11 2
  18   10   22 1
  19   13   14 1
  20   13   18 1
  21   13   23 1
  22   14   15 1
  23   15   16 1
  24   15   24 1
  25   15   25 1
  26   16   17 1
  27   16   26 1
  28   16   27 1
  29   17   18 1
  30   17   28 1
  31   17   29 1
  32   18   30 1
  33   18   31 1

#	End of record

