#	Name: ASD01940216
#	Creating user name:	WinNT
#	Creation time:	15. 06. 2019 20:12

#	Modifying user name:	WinNT
#	Modification time:	15. 06. 2019 20:12

#	Program:	/corina/corina34_cracker 3.40 0067  02.08.2006

@<TRIPOS>MOLECULE
ASD01940216
  48   49    0    0    0
SMALL
NO_CHARGES


@<TRIPOS>ATOM
   1 I1             5.9965    -3.3359    -2.4788 I       
   2 F2             3.2050     1.6155     2.0911 F       
   3 C3             2.2045     1.9981     1.2678 C.ar    
   4 C4             2.4734     2.2926    -0.0623 C.ar    
   5 C5             1.4377     2.6865    -0.9080 C.ar    
   6 C6             0.1440     2.7826    -0.4176 C.ar    
   7 C7            -0.1177     2.4885     0.9079 C.ar    
   8 C8             0.9082     2.0915     1.7485 C.ar    
   9 N9             3.7827     2.1945    -0.5530 N.pl3   
  10 N10            1.7034     2.9854    -2.2511 N.am    
  11 C11            4.2773     0.9600    -0.9826 C.ar    
  12 C12            3.4330    -0.1401    -1.0571 C.ar    
  13 C13            3.9247    -1.3590    -1.4826 C.ar    
  14 C14            5.2564    -1.4850    -1.8343 C.ar    
  15 C15            6.1010    -0.3914    -1.7610 C.ar    
  16 C16            5.6145     0.8318    -1.3418 C.ar    
  17 Cl17           6.6745     2.2036    -1.2500 Cl      
  18 F18            0.6459     1.8000     3.0413 F       
  19 S19            0.8596     4.1888    -3.0141 S.o2    
  20 O20            1.4215     4.2381    -4.3183 O.2     
  21 O21           -0.5038     3.8405    -2.8164 O.2     
  22 C22           -0.7723     6.9259    -2.2668 C.3     
  23 C23           -0.9174     8.0697    -1.2610 C.3     
  24 C24           -0.2195     7.6905     0.0467 C.3     
  25 C25           -1.6349     7.2160    -3.4968 C.3     
  26 C26           -1.6454     5.9906    -4.4128 C.3     
  27 C27            1.2739     5.6910    -2.0853 C.3     
  28 O28            0.5961     6.8093    -2.6614 O.3     
  29 H29           -0.6596     3.0876    -1.0715 H       
  30 H30           -1.1260     2.5644     1.2873 H       
  31 H31            4.3456     2.9834    -0.5944 H       
  32 H32            2.3815     2.4874    -2.7338 H       
  33 H33            2.3931    -0.0429    -0.7824 H       
  34 H34            3.2684    -2.2148    -1.5403 H       
  35 H35            7.1405    -0.4933    -2.0357 H       
  36 H36           -1.0984     5.9934    -1.8062 H       
  37 H37           -0.4607     8.9718    -1.6682 H       
  38 H38           -1.9746     8.2526    -1.0688 H       
  39 H39           -0.6626     6.7770     0.4433 H       
  40 H40            0.8416     7.5274    -0.1418 H       
  41 H41           -0.3403     8.4968     0.7701 H       
  42 H42           -2.6533     7.4424    -3.1812 H       
  43 H43           -1.2234     8.0692    -4.0361 H       
  44 H44           -2.1334     5.1599    -3.9029 H       
  45 H45           -2.1895     6.2254    -5.3276 H       
  46 H46           -0.6207     5.7133    -4.6605 H       
  47 H47            0.9635     5.5734    -1.0471 H       
  48 H48            2.3502     5.8581    -2.1260 H       
@<TRIPOS>BOND
   1    1   14 1
   2    2    3 1
   3    3    4 ar
   4    3    8 ar
   5    4    5 ar
   6    4    9 1
   7    5    6 ar
   8    5   10 1
   9    6    7 ar
  10    6   29 1
  11    7    8 ar
  12    7   30 1
  13    8   18 1
  14    9   11 1
  15    9   31 1
  16   10   19 am
  17   10   32 1
  18   11   12 ar
  19   11   16 ar
  20   12   13 ar
  21   12   33 1
  22   13   14 ar
  23   13   34 1
  24   14   15 ar
  25   15   16 ar
  26   15   35 1
  27   16   17 1
  28   19   20 2
  29   19   21 2
  30   19   27 1
  31   22   25 1
  32   22   28 1
  33   22   23 1
  34   22   36 1
  35   23   24 1
  36   23   37 1
  37   23   38 1
  38   24   39 1
  39   24   40 1
  40   24   41 1
  41   25   26 1
  42   25   42 1
  43   25   43 1
  44   26   44 1
  45   26   45 1
  46   26   46 1
  47   27   28 1
  48   27   47 1
  49   27   48 1

#	End of record

