#	Name: ASD02560523
#	Creating user name:	WinNT
#	Creation time:	15. 06. 2019 20:25

#	Modifying user name:	WinNT
#	Modification time:	15. 06. 2019 20:25

#	Program:	/corina/corina34_cracker 3.40 0067  02.08.2006

@<TRIPOS>MOLECULE
ASD02560523
  56   60    0    0    0
SMALL
NO_CHARGES


@<TRIPOS>ATOM
   1 C1             0.9998     2.2080     0.9096 C.2     
   2 C2             1.0369     1.1414     1.8170 C.2     
   3 C3             1.8996     0.1046     1.6220 C.2     
   4 N4             2.7417     0.0966     0.5320 N.pl3   
   5 C5             2.7188     1.1362    -0.3705 C.2     
   6 C6             1.8274     2.2105    -0.1717 C.2     
   7 C7             3.6839    -0.7949     0.1026 C.2     
   8 C8             4.2207    -0.2794    -1.0599 C.2     
   9 N9             3.6117     0.8921    -1.3161 N.2     
  10 C10            5.2817    -0.9070    -1.8818 C.ar    
  11 N11            4.0358    -1.9942     0.7201 N.3     
  12 C12            5.4038    -1.9312     1.2516 C.3     
  13 C13            5.1463    -2.2267    -2.3108 C.ar    
  14 C14            6.4184    -0.1776    -2.2348 C.ar    
  15 C15            5.3557    -1.6119     2.7471 C.3     
  16 C16            6.0959    -3.2792     1.0399 C.3     
  17 C17            7.5207    -3.2135     1.5935 C.3     
  18 C18            7.4726    -2.8942     3.0890 C.3     
  19 C19            6.7805    -1.5462     3.3007 C.3     
  20 C20            6.1378    -2.8058    -3.0766 C.ar    
  21 C21            7.2645    -2.0801    -3.4191 C.ar    
  22 C22            7.4031    -0.7684    -3.0013 C.ar    
  23 Cl23           6.5931     1.4684    -1.7116 Cl      
  24 C24            1.9321    -1.0152     2.5839 C.ar    
  25 C25            2.5175    -0.8440     3.8402 C.ar    
  26 C26            2.5440    -1.8944     4.7341 C.ar    
  27 C27            1.9922    -3.1152     4.3885 C.ar    
  28 C28            1.4108    -3.2920     3.1451 C.ar    
  29 C29            1.3722    -2.2489     2.2437 C.ar    
  30 C30            3.1195     0.4848     4.2182 C.3     
  31 H31            0.3119     3.0259     1.0652 H       
  32 H32            0.3799     1.1409     2.6741 H       
  33 H33            1.8010     3.0308    -0.8736 H       
  34 H34            3.3768    -2.2345     1.4454 H       
  35 H35            5.9602    -1.1515     0.7314 H       
  36 H36            4.2674    -2.7948    -2.0440 H       
  37 H37            4.8626    -0.6516     2.8980 H       
  38 H38            4.7993    -2.3916     3.2674 H       
  39 H39            5.5396    -4.0589     1.5601 H       
  40 H40            6.1302    -3.5066    -0.0256 H       
  41 H41            8.0137    -4.1738     1.4427 H       
  42 H42            8.0770    -2.4338     1.0732 H       
  43 H43            6.9162    -3.6739     3.6093 H       
  44 H44            8.4876    -2.8474     3.4834 H       
  45 H45            7.3368    -0.7665     2.7805 H       
  46 H46            6.7462    -1.3188     4.3662 H       
  47 H47            6.0338    -3.8281    -3.4090 H       
  48 H48            8.0375    -2.5381    -4.0183 H       
  49 H49            8.2850    -0.2068    -3.2721 H       
  50 H50            2.9967    -1.7635     5.7059 H       
  51 H51            2.0156    -3.9341     5.0922 H       
  52 H52            0.9826    -4.2478     2.8816 H       
  53 H53            0.9179    -2.3882     1.2739 H       
  54 H54            2.3591     1.1070     4.6903 H       
  55 H55            3.9426     0.3258     4.9148 H       
  56 H56            3.4921     0.9828     3.3231 H       
@<TRIPOS>BOND
   1    1    2 1
   2    1    6 2
   3    1   31 1
   4    2    3 2
   5    2   32 1
   6    3    4 1
   7    3   24 1
   8    4    5 1
   9    4    7 1
  10    5    6 1
  11    5    9 2
  12    6   33 1
  13    7    8 2
  14    7   11 1
  15    8    9 1
  16    8   10 1
  17   10   13 ar
  18   10   14 ar
  19   11   12 1
  20   11   34 1
  21   12   16 1
  22   12   15 1
  23   12   35 1
  24   13   20 ar
  25   13   36 1
  26   14   23 1
  27   14   22 ar
  28   15   19 1
  29   15   37 1
  30   15   38 1
  31   16   17 1
  32   16   39 1
  33   16   40 1
  34   17   18 1
  35   17   41 1
  36   17   42 1
  37   18   19 1
  38   18   43 1
  39   18   44 1
  40   19   45 1
  41   19   46 1
  42   20   21 ar
  43   20   47 1
  44   21   22 ar
  45   21   48 1
  46   22   49 1
  47   24   25 ar
  48   24   29 ar
  49   25   26 ar
  50   25   30 1
  51   26   27 ar
  52   26   50 1
  53   27   28 ar
  54   27   51 1
  55   28   29 ar
  56   28   52 1
  57   29   53 1
  58   30   54 1
  59   30   55 1
  60   30   56 1

#	End of record

