#	Name: ASD01148264
#	Creating user name:	WinNT
#	Creation time:	15. 06. 2019 19:02

#	Modifying user name:	WinNT
#	Modification time:	15. 06. 2019 19:02

#	Program:	/corina/corina34_cracker 3.40 0067  02.08.2006

@<TRIPOS>MOLECULE
ASD01148264
  52   55    0    0    0
SMALL
NO_CHARGES


@<TRIPOS>ATOM
   1 C1            -0.0167     1.3802     0.0096 C.ar    
   2 C2             0.0021    -0.0041     0.0020 C.ar    
   3 C3            -1.1870    -0.7112     0.0101 C.ar    
   4 C4            -2.3926    -0.0358     0.0257 C.ar    
   5 C5            -2.4113     1.3467     0.0333 C.ar    
   6 C6            -1.2244     2.0547     0.0306 C.ar    
   7 C7            -3.7267     2.0819     0.0498 C.3     
   8 O8            -4.7310     1.3273     0.7580 O.3     
   9 C9            -3.6330     3.3655     0.9089 C.3     
  10 C10           -4.1234     2.8918     2.2639 C.2     
  11 N11           -4.7174     1.7567     2.1051 N.2     
  12 C12           -3.9506     3.6058     3.5442 C.ar    
  13 C13           -4.4540     3.0543     4.7252 C.ar    
  14 C14           -3.2788     4.8304     3.5761 C.ar    
  15 C15           -3.1178     5.4962     4.7702 C.ar    
  16 C16           -3.6261     4.9475     5.9499 C.ar    
  17 C17           -4.2928     3.7203     5.9191 C.ar    
  18 C18           -3.4527     5.6622     7.2319 C.2     
  19 O19           -2.8678     6.7275     7.2597 O.2     
  20 N20           -3.9431     5.1328     8.3703 N.am    
  21 C21           -4.1874     2.4065    -1.3726 C.3     
  22 F22           -4.3294     1.2193    -2.0991 F       
  23 F23           -5.4163     3.0733    -1.3241 F       
  24 F24           -3.2377     3.2235    -1.9954 F       
  25 Cl25           1.5168    -0.8520    -0.0182 Cl      
  26 Cl26           1.4744     2.2691     0.0002 Cl      
  27 C27           -3.7712     5.8413     9.6410 C.3     
  28 C28           -4.4055     5.0431    10.7509 C.ar    
  29 N29           -5.6948     5.1748    10.9936 N.ar    
  30 C30           -6.2924     4.4970    11.9542 C.ar    
  31 C31           -5.5803     3.6173    12.7470 C.ar    
  32 C32           -4.2220     3.4522    12.5215 C.ar    
  33 C33           -3.6300     4.1773    11.4989 C.ar    
  34 C34           -1.1675    -2.2181     0.0013 C.3     
  35 F35           -2.4803    -2.7015     0.0118 F       
  36 F36           -0.5137    -2.6693    -1.1503 F       
  37 F37           -0.4905    -2.6823     1.1341 F       
  38 H38           -3.3206    -0.5882     0.0316 H       
  39 H39           -1.2398     3.1346     0.0365 H       
  40 H40           -2.6025     3.7152     0.9709 H       
  41 H41           -4.2840     4.1447     0.5126 H       
  42 H42           -4.9697     2.1057     4.7013 H       
  43 H43           -2.8855     5.2545     2.6640 H       
  44 H44           -2.5981     6.4426     4.7949 H       
  45 H45           -4.6857     3.2962     6.8313 H       
  46 H46           -4.4098     4.2828     8.3481 H       
  47 H47           -2.7081     5.9673     9.8458 H       
  48 H48           -4.2478     6.8196     9.5789 H       
  49 H49           -7.3506     4.6313    12.1234 H       
  50 H50           -6.0752     3.0656    13.5325 H       
  51 H51           -3.6400     2.7719    13.1256 H       
  52 H52           -2.5746     4.0733    11.2949 H       
@<TRIPOS>BOND
   1    1    2 ar
   2    1   26 1
   3    1    6 ar
   4    2    3 ar
   5    2   25 1
   6    3    4 ar
   7    3   34 1
   8    4    5 ar
   9    4   38 1
  10    5    6 ar
  11    5    7 1
  12    6   39 1
  13    7    8 1
  14    7    9 1
  15    7   21 1
  16    8   11 1
  17    9   10 1
  18    9   40 1
  19    9   41 1
  20   10   11 2
  21   10   12 1
  22   12   13 ar
  23   12   14 ar
  24   13   17 ar
  25   13   42 1
  26   14   15 ar
  27   14   43 1
  28   15   16 ar
  29   15   44 1
  30   16   17 ar
  31   16   18 1
  32   17   45 1
  33   18   19 2
  34   18   20 am
  35   20   27 1
  36   20   46 1
  37   21   22 1
  38   21   23 1
  39   21   24 1
  40   27   28 1
  41   27   47 1
  42   27   48 1
  43   28   29 ar
  44   28   33 ar
  45   29   30 ar
  46   30   31 ar
  47   30   49 1
  48   31   32 ar
  49   31   50 1
  50   32   33 ar
  51   32   51 1
  52   33   52 1
  53   34   35 1
  54   34   36 1
  55   34   37 1

#	End of record

