#	Name: ASD02030483
#	Creating user name:	WinNT
#	Creation time:	15. 06. 2019 20:15

#	Modifying user name:	WinNT
#	Modification time:	15. 06. 2019 20:15

#	Program:	/corina/corina34_cracker 3.40 0067  02.08.2006

@<TRIPOS>MOLECULE
ASD02030483
  21   22    0    0    0
SMALL
NO_CHARGES


@<TRIPOS>ATOM
   1 N1            -0.0154     1.2843     0.0091 N.pl3   
   2 N2             0.0021    -0.0041     0.0020 N.2     
   3 C3             1.2542    -0.4090    -0.0121 C.2     
   4 N4             2.0428     0.6818    -0.0138 N.2     
   5 C5             1.2583     1.7290    -0.0007 C.2     
   6 C6             1.7132    -1.8129    -0.0236 C.2     
   7 O7             0.9020    -2.7172    -0.0203 O.2     
   8 O8             3.0315    -2.0906    -0.0377 O.3     
   9 C9            -1.1634     2.0879     0.0191 C.ar    
  10 C10           -2.4222     1.5022     0.0227 C.ar    
  11 C11           -3.5532     2.2982     0.0326 C.ar    
  12 C12           -3.4296     3.6780     0.0384 C.ar    
  13 C13           -2.1767     4.2619     0.0349 C.ar    
  14 C14           -1.0440     3.4711     0.0313 C.ar    
  15 F15           -4.7789     1.7300     0.0360 F       
  16 H16            1.5733     2.7620     0.0013 H       
  17 H17            3.2835    -3.0241    -0.0449 H       
  18 H18           -2.5180     0.4264     0.0174 H       
  19 H19           -4.3135     4.2984     0.0454 H       
  20 H20           -2.0833     5.3378     0.0395 H       
  21 H21           -0.0657     3.9288     0.0330 H       
@<TRIPOS>BOND
   1    1    2 1
   2    1    5 1
   3    1    9 1
   4    2    3 2
   5    3    4 1
   6    3    6 1
   7    4    5 2
   8    5   16 1
   9    6    7 2
  10    6    8 1
  11    8   17 1
  12    9   10 ar
  13    9   14 ar
  14   10   11 ar
  15   10   18 1
  16   11   12 ar
  17   11   15 1
  18   12   13 ar
  19   12   19 1
  20   13   14 ar
  21   13   20 1
  22   14   21 1

#	End of record

