#	Name: ASD00570005
#	Creating user name:	WinNT
#	Creation time:	15. 06. 2019 18:36

#	Modifying user name:	WinNT
#	Modification time:	15. 06. 2019 18:36

#	Program:	/corina/corina34_cracker 3.40 0067  02.08.2006

@<TRIPOS>MOLECULE
ASD00570005
  69   73    0    0    0
SMALL
NO_CHARGES


@<TRIPOS>ATOM
   1 C1             6.5678    -2.3892    -6.3238 C.ar    
   2 C2             6.2174    -3.5249    -5.6051 C.ar    
   3 C3             6.1231    -3.4897    -4.2325 C.ar    
   4 C4             6.3832    -2.2975    -3.5510 C.ar    
   5 C5             6.7402    -1.1436    -4.2859 C.ar    
   6 C6             6.8292    -1.2021    -5.6757 C.ar    
   7 N7             6.3010    -2.2210    -2.2019 N.2     
   8 C8             6.5444    -1.1036    -1.5628 C.2     
   9 N9             6.8953     0.0564    -2.1965 N.am    
  10 C10            7.0077     0.0960    -3.5444 C.2     
  11 C11            7.1403     1.2126    -1.4445 C.ar    
  12 C12            6.0788     1.9660    -0.9610 C.ar    
  13 C13            6.3236     3.1051    -0.2194 C.ar    
  14 C14            7.6242     3.4957     0.0418 C.ar    
  15 C15            8.6834     2.7478    -0.4387 C.ar    
  16 C16            8.4451     1.6045    -1.1760 C.ar    
  17 S17            6.4130    -1.0947     0.1943 S.3     
  18 C18            6.0412    -2.8412     0.4905 C.3     
  19 C19            7.2149    -3.6842     0.0631 C.2     
  20 C20            5.7721    -3.0597     1.9807 C.3     
  21 C21            4.5346    -2.2626     2.3978 C.3     
  22 C22            4.2746    -2.4688     3.8914 C.3     
  23 C23            3.0370    -1.6717     4.3084 C.3     
  24 N24            7.0269    -4.9707    -0.2917 N.am    
  25 C25            8.1585    -5.8110    -0.7120 C.3     
  26 C26            8.1274    -7.1107     0.0992 C.3     
  27 N27            6.8053    -7.7367    -0.0354 N.3     
  28 C28            5.7510    -6.8808     0.5249 C.3     
  29 C29            5.6856    -5.5734    -0.2630 C.3     
  30 O30            8.3287    -3.2049     0.0383 O.2     
  31 O31            7.3192     1.1216    -4.1216 O.2     
  32 C32            6.7884    -9.0027     0.5543 C.ar    
  33 C33            5.6267    -9.7641     0.5353 C.ar    
  34 C34            5.6136   -11.0156     1.1190 C.ar    
  35 C35            6.7553   -11.5111     1.7217 C.ar    
  36 C36            7.9135   -10.7559     1.7424 C.ar    
  37 C37            7.9350    -9.5056     1.1560 C.ar    
  38 H38            6.6404    -2.4385    -7.4003 H       
  39 H39            6.0160    -4.4471    -6.1299 H       
  40 H40            5.8490    -4.3791    -3.6845 H       
  41 H41            7.1012    -0.3227    -6.2406 H       
  42 H42            5.0629     1.6617    -1.1650 H       
  43 H43            5.4984     3.6917     0.1566 H       
  44 H44            7.8130     4.3868     0.6220 H       
  45 H45            9.6981     3.0557    -0.2336 H       
  46 H46            9.2728     1.0208    -1.5510 H       
  47 H47            5.1600    -3.1275    -0.0836 H       
  48 H48            5.6014    -4.1199     2.1675 H       
  49 H49            6.6329    -2.7230     2.5585 H       
  50 H50            4.7011    -1.2035     2.2008 H       
  51 H51            3.6716    -2.6068     1.8278 H       
  52 H52            4.1080    -3.5278     4.0883 H       
  53 H53            5.1376    -2.1245     4.4613 H       
  54 H54            2.1740    -2.0159     3.7385 H       
  55 H55            2.8518    -1.8186     5.3725 H       
  56 H56            3.2036    -0.6126     4.1114 H       
  57 H57            8.0700    -6.0400    -1.7740 H       
  58 H58            9.0946    -5.2849    -0.5248 H       
  59 H59            8.8919    -7.7915    -0.2751 H       
  60 H60            8.3196    -6.8890     1.1489 H       
  61 H61            4.7920    -7.3949     0.4593 H       
  62 H62            5.9763    -6.6623     1.5687 H       
  63 H63            4.9858    -4.8904     0.2184 H       
  64 H64            5.3601    -5.7766    -1.2832 H       
  65 H65            4.7346    -9.3775     0.0651 H       
  66 H66            4.7107   -11.6080     1.1049 H       
  67 H67            6.7423   -12.4901     2.1777 H       
  68 H68            8.8034   -11.1458     2.2140 H       
  69 H69            8.8399    -8.9164     1.1721 H       
@<TRIPOS>BOND
   1    1    2 ar
   2    1    6 ar
   3    1   38 1
   4    2    3 ar
   5    2   39 1
   6    3    4 ar
   7    3   40 1
   8    4    5 ar
   9    4    7 1
  10    5    6 ar
  11    5   10 1
  12    6   41 1
  13    7    8 2
  14    8    9 1
  15    8   17 1
  16    9   10 am
  17    9   11 1
  18   10   31 2
  19   11   12 ar
  20   11   16 ar
  21   12   13 ar
  22   12   42 1
  23   13   14 ar
  24   13   43 1
  25   14   15 ar
  26   14   44 1
  27   15   16 ar
  28   15   45 1
  29   16   46 1
  30   17   18 1
  31   18   19 1
  32   18   20 1
  33   18   47 1
  34   19   24 am
  35   19   30 2
  36   20   21 1
  37   20   48 1
  38   20   49 1
  39   21   22 1
  40   21   50 1
  41   21   51 1
  42   22   23 1
  43   22   52 1
  44   22   53 1
  45   23   54 1
  46   23   55 1
  47   23   56 1
  48   24   25 1
  49   24   29 1
  50   25   26 1
  51   25   57 1
  52   25   58 1
  53   26   27 1
  54   26   59 1
  55   26   60 1
  56   27   28 1
  57   27   32 1
  58   28   29 1
  59   28   61 1
  60   28   62 1
  61   29   63 1
  62   29   64 1
  63   32   33 ar
  64   32   37 ar
  65   33   34 ar
  66   33   65 1
  67   34   35 ar
  68   34   66 1
  69   35   36 ar
  70   35   67 1
  71   36   37 ar
  72   36   68 1
  73   37   69 1

#	End of record

