#	Name: ASD01884052
#	Creating user name:	WinNT
#	Creation time:	15. 06. 2019 19:47

#	Modifying user name:	WinNT
#	Modification time:	15. 06. 2019 19:47

#	Program:	/corina/corina34_cracker 3.40 0067  02.08.2006

@<TRIPOS>MOLECULE
ASD01884052
  46   49    0    0    0
SMALL
NO_CHARGES


@<TRIPOS>ATOM
   1 C1             0.1991     1.2382     1.7630 C.2     
   2 C2             0.2119    -0.1634     1.5571 C.2     
   3 C3             1.2935    -0.7336     0.8626 C.2     
   4 C4             2.3209     0.1118     0.3993 C.2     
   5 C5             2.2539     1.4432     0.6259 C.2     
   6 N6             1.2099     1.9946     1.2965 N.am    
   7 C7            -0.8550    -0.9833     2.0470 C.1     
   8 N8            -1.7015    -1.6337     2.4356 N.1     
   9 O9            -0.7291     1.7593     2.3576 O.2     
  10 C10            1.3516    -2.1906     0.6237 C.ar    
  11 C11            1.2872    -2.6898    -0.6795 C.ar    
  12 C12            1.3421    -4.0486    -0.8981 C.ar    
  13 C13            1.4615    -4.9228     0.1758 C.ar    
  14 C14            1.5254    -4.4301     1.4739 C.ar    
  15 C15            1.4769    -3.0723     1.7002 C.ar    
  16 O16            1.5153    -6.2614    -0.0436 O.3     
  17 C17           -2.0362    -7.0404     0.0879 C.ar    
  18 C18           -0.8727    -6.2984     0.0841 C.ar    
  19 C19            0.3491    -6.9559    -0.0354 C.ar    
  20 C20            0.3439    -8.3445    -0.1468 C.ar    
  21 C21           -0.8624    -9.0137    -0.1349 C.ar    
  22 N22           -2.0001    -8.3549    -0.0198 N.ar    
  23 C23           -3.3642    -6.3410     0.2229 C.3     
  24 C24            1.1829     3.4427     1.5164 C.3     
  25 C25            1.8799     3.7709     2.8383 C.3     
  26 C26            2.0607     5.2480     3.1939 C.3     
  27 C27            1.0330     4.4003     3.9463 C.3     
  28 H28            3.1619    -0.3034    -0.1364 H       
  29 H29            3.0476     2.0813     0.2663 H       
  30 H30            1.1941    -2.0112    -1.5145 H       
  31 H31            1.2920    -4.4353    -1.9052 H       
  32 H32            1.6178    -5.1125     2.3058 H       
  33 H33            1.5315    -2.6899     2.7088 H       
  34 H34           -0.9092    -5.2226     0.1723 H       
  35 H35            1.2714    -8.8896    -0.2416 H       
  36 H36           -0.8758   -10.0902    -0.2211 H       
  37 H37           -3.7429    -6.0859    -0.7668 H       
  38 H38           -4.0728    -7.0004     0.7242 H       
  39 H39           -3.2376    -5.4308     0.8092 H       
  40 H40            1.7004     3.9441     0.6985 H       
  41 H41            0.1488     3.7850     1.5561 H       
  42 H42            2.6688     3.0810     3.1378 H       
  43 H43            2.9683     5.5297     3.7277 H       
  44 H44            1.6831     5.9860     2.4861 H       
  45 H45           -0.0208     4.5805     3.7334 H       
  46 H46            1.2645     4.1242     4.9750 H       
@<TRIPOS>BOND
   1    1    2 1
   2    1    6 am
   3    1    9 2
   4    2    3 2
   5    2    7 1
   6    3    4 1
   7    3   10 1
   8    4    5 2
   9    4   28 1
  10    5    6 1
  11    5   29 1
  12    6   24 1
  13    7    8 3
  14   10   11 ar
  15   10   15 ar
  16   11   12 ar
  17   11   30 1
  18   12   13 ar
  19   12   31 1
  20   13   14 ar
  21   13   16 1
  22   14   15 ar
  23   14   32 1
  24   15   33 1
  25   16   19 1
  26   17   18 ar
  27   17   22 ar
  28   17   23 1
  29   18   19 ar
  30   18   34 1
  31   19   20 ar
  32   20   21 ar
  33   20   35 1
  34   21   22 ar
  35   21   36 1
  36   23   37 1
  37   23   38 1
  38   23   39 1
  39   24   25 1
  40   24   40 1
  41   24   41 1
  42   25   26 1
  43   25   27 1
  44   25   42 1
  45   26   27 1
  46   26   43 1
  47   26   44 1
  48   27   45 1
  49   27   46 1

#	End of record

