#	Name: ASD01914812
#	Creating user name:	WinNT
#	Creation time:	15. 06. 2019 20:04

#	Modifying user name:	WinNT
#	Modification time:	15. 06. 2019 20:04

#	Program:	/corina/corina34_cracker 3.40 0067  02.08.2006

@<TRIPOS>MOLECULE
ASD01914812
  59   63    0    0    0
SMALL
NO_CHARGES


@<TRIPOS>ATOM
   1 N1             0.0273     1.3909    -0.1030 N.2     
   2 C2            -0.0390     0.0594     0.0783 C.2     
   3 C3             1.2320    -0.4204     0.1478 C.2     
   4 N4             2.0695     0.6500     0.0046 N.pl3   
   5 C5             1.2873     1.7578    -0.1489 C.2     
   6 C6            -1.2813    -0.7450     0.1843 C.ar    
   7 C7            -2.5260    -0.1241     0.0956 C.ar    
   8 C8            -1.2074    -2.1243     0.3671 C.ar    
   9 C9            -2.3659    -2.8682     0.4646 C.ar    
  10 C10           -3.5996    -2.2462     0.3812 C.ar    
  11 C11           -3.6783    -0.8765     0.1943 C.ar    
  12 C12            1.7771     3.1409    -0.3362 C.ar    
  13 C13            3.0856     3.4744     0.0153 C.ar    
  14 C14            3.5363     4.7663    -0.1619 C.ar    
  15 C15            2.6938     5.7302    -0.6864 C.ar    
  16 C16            1.3953     5.4060    -1.0369 C.ar    
  17 C17            0.9343     4.1162    -0.8705 C.ar    
  18 C18            3.5341     0.6150     0.0151 C.3     
  19 C19            4.0321     0.8478     1.4183 C.2     
  20 O20            3.2415     1.0254     2.3207 O.2     
  21 N21            5.3560     0.8585     1.6703 N.am    
  22 C22            5.8633     1.0839     3.0324 C.3     
  23 C23            6.3316     0.6392     0.5918 C.3     
  24 C24            7.3063    -0.4580     1.0328 C.3     
  25 N25            7.8880    -0.0983     2.3328 N.3     
  26 C26            6.8574    -0.0317     3.3723 C.3     
  27 C27            8.8921    -0.9830     2.6858 C.ar    
  28 N28            9.9105    -1.1689     1.8588 N.ar    
  29 N29            8.8149    -1.6198     3.8451 N.ar    
  30 C30            9.7579    -2.4715     4.2127 C.ar    
  31 C31           10.8348    -2.6935     3.3690 C.ar    
  32 C32           10.8867    -2.0068     2.1661 C.ar    
  33 Cl33          -5.0531    -3.1875     0.5040 Cl      
  34 C34           -5.0247    -0.2057     0.1043 C.3     
  35 H35            1.5236    -1.4507     0.2891 H       
  36 H36           -2.5884     0.9442    -0.0499 H       
  37 H37           -0.2453    -2.6106     0.4320 H       
  38 H38           -2.3097    -3.9374     0.6060 H       
  39 H39            3.7440     2.7230     0.4254 H       
  40 H40            4.5489     5.0257     0.1097 H       
  41 H41            3.0512     6.7403    -0.8225 H       
  42 H42            0.7424     6.1631    -1.4455 H       
  43 H43           -0.0794     3.8642    -1.1448 H       
  44 H44            3.8768    -0.3586    -0.3352 H       
  45 H45            3.9208     1.3942    -0.6416 H       
  46 H46            6.3663     2.0497     3.0806 H       
  47 H47            5.0344     1.0638     3.7398 H       
  48 H48            5.8121     0.3252    -0.3136 H       
  49 H49            6.8804     1.5615     0.4013 H       
  50 H50            6.7725    -1.4041     1.1224 H       
  51 H51            8.1011    -0.5571     0.2935 H       
  52 H52            7.3243     0.1785     4.3345 H       
  53 H53            6.3305    -0.9846     3.4237 H       
  54 H54            9.6896    -2.9874     5.1591 H       
  55 H55           11.6187    -3.3834     3.6447 H       
  56 H56           11.7122    -2.1572     1.4861 H       
  57 H57           -5.3482     0.0950     1.1008 H       
  58 H58           -4.9503     0.6743    -0.5345 H       
  59 H59           -5.7497    -0.9013    -0.3185 H       
@<TRIPOS>BOND
   1    1    2 1
   2    1    5 2
   3    2    3 2
   4    2    6 1
   5    3    4 1
   6    3   35 1
   7    4    5 1
   8    4   18 1
   9    5   12 1
  10    6    7 ar
  11    6    8 ar
  12    7   11 ar
  13    7   36 1
  14    8    9 ar
  15    8   37 1
  16    9   10 ar
  17    9   38 1
  18   10   11 ar
  19   10   33 1
  20   11   34 1
  21   12   13 ar
  22   12   17 ar
  23   13   14 ar
  24   13   39 1
  25   14   15 ar
  26   14   40 1
  27   15   16 ar
  28   15   41 1
  29   16   17 ar
  30   16   42 1
  31   17   43 1
  32   18   19 1
  33   18   44 1
  34   18   45 1
  35   19   20 2
  36   19   21 am
  37   21   22 1
  38   21   23 1
  39   22   26 1
  40   22   46 1
  41   22   47 1
  42   23   24 1
  43   23   48 1
  44   23   49 1
  45   24   25 1
  46   24   50 1
  47   24   51 1
  48   25   26 1
  49   25   27 1
  50   26   52 1
  51   26   53 1
  52   27   28 ar
  53   27   29 ar
  54   28   32 ar
  55   29   30 ar
  56   30   31 ar
  57   30   54 1
  58   31   32 ar
  59   31   55 1
  60   32   56 1
  61   34   57 1
  62   34   58 1
  63   34   59 1

#	End of record

