#	Name: ASD01230713
#	Creating user name:	WinNT
#	Creation time:	15. 06. 2019 19:14

#	Modifying user name:	WinNT
#	Modification time:	15. 06. 2019 19:14

#	Program:	/corina/corina34_cracker 3.40 0067  02.08.2006

@<TRIPOS>MOLECULE
ASD01230713
  37   39    0    0    0
SMALL
NO_CHARGES


@<TRIPOS>ATOM
   1 C1            -0.0163     1.3498     0.0095 C.2     
   2 C2             0.0021    -0.0041     0.0020 C.2     
   3 C3            -1.2143    -0.7087     0.0108 C.2     
   4 C4            -2.3800    -0.0380     0.0083 C.2     
   5 N5            -2.4224     1.3347    -0.0038 N.pl3   
   6 C6            -1.2586     2.0488     0.0310 C.2     
   7 C7            -3.7549     1.9410    -0.0601 C.3     
   8 C8            -3.7957     3.2254     0.7730 C.3     
   9 S9            -2.5095     4.3326     0.1140 S.o2    
  10 N10           -1.1723     3.3592     0.0853 N.am    
  11 C11            1.2794     2.1193     0.0012 C.3     
  12 O12            2.3768     1.2042    -0.0142 O.3     
  13 C13            3.6261     1.7391    -0.0232 C.ar    
  14 C14            4.7374     0.9087    -0.0383 C.ar    
  15 C15            6.0062     1.4549    -0.0474 C.ar    
  16 C16            6.1692     2.8279    -0.0416 C.ar    
  17 C17            5.0633     3.6577    -0.0261 C.ar    
  18 C18            3.7922     3.1164    -0.0231 C.ar    
  19 C19            7.5545     3.4211    -0.0516 C.3     
  20 F20            7.9706     3.6118    -1.3736 F       
  21 F21            7.5400     4.6511     0.6148 F       
  22 F22            8.4390     2.5510     0.5949 F       
  23 O23           -2.7616     4.6430    -1.2496 O.2     
  24 O24           -2.1877     5.3478     1.0548 O.2     
  25 H25            0.9413    -0.5370    -0.0109 H       
  26 H26           -1.2127    -1.7887     0.0191 H       
  27 H27           -3.3065    -0.5931     0.0156 H       
  28 H28           -3.9996     2.1762    -1.0960 H       
  29 H29           -4.4881     1.2354     0.3307 H       
  30 H30           -4.7742     3.6968     0.6813 H       
  31 H31           -3.5890     2.9968     1.8185 H       
  32 H32            1.3209     2.7514    -0.8858 H       
  33 H33            1.3379     2.7419     0.8940 H       
  34 H34            4.6106    -0.1638    -0.0425 H       
  35 H35            6.8717     0.8089    -0.0588 H       
  36 H36            5.1932     4.7298    -0.0208 H       
  37 H37            2.9287     3.7649    -0.0111 H       
@<TRIPOS>BOND
   1    1    2 2
   2    1   11 1
   3    1    6 1
   4    2    3 1
   5    2   25 1
   6    3    4 2
   7    3   26 1
   8    4    5 1
   9    4   27 1
  10    5    6 1
  11    5    7 1
  12    6   10 2
  13    7    8 1
  14    7   28 1
  15    7   29 1
  16    8    9 1
  17    8   30 1
  18    8   31 1
  19    9   10 am
  20    9   23 2
  21    9   24 2
  22   11   12 1
  23   11   32 1
  24   11   33 1
  25   12   13 1
  26   13   14 ar
  27   13   18 ar
  28   14   15 ar
  29   14   34 1
  30   15   16 ar
  31   15   35 1
  32   16   17 ar
  33   16   19 1
  34   17   18 ar
  35   17   36 1
  36   18   37 1
  37   19   20 1
  38   19   21 1
  39   19   22 1

#	End of record

