#	Name: ASD01885385
#	Creating user name:	WinNT
#	Creation time:	15. 06. 2019 19:49

#	Modifying user name:	WinNT
#	Modification time:	15. 06. 2019 19:49

#	Program:	/corina/corina34_cracker 3.40 0067  02.08.2006

@<TRIPOS>MOLECULE
ASD01885385
  34   36    0    0    0
SMALL
NO_CHARGES


@<TRIPOS>ATOM
   1 C1            -0.0169     1.3920     0.0097 C.ar    
   2 C2             0.0021    -0.0041     0.0020 C.ar    
   3 N3            -1.1141    -0.7730     0.0202 N.2     
   4 C4            -2.1909    -0.5678    -0.6467 C.2     
   5 C5            -2.3523     0.6327    -1.5420 C.3     
   6 C6            -2.2799     1.8711    -0.6849 C.2     
   7 N7            -1.1827     2.1468     0.0191 N.am    
   8 C8             1.1872     2.0916     0.0020 C.ar    
   9 C9             2.4015     1.4087    -0.0183 C.ar    
  10 C10            2.4113     0.0099    -0.0315 C.ar    
  11 C11            1.2376    -0.6790    -0.0216 C.ar    
  12 C12            3.6723     2.1582    -0.0264 C.2     
  13 C13           -3.2991    -1.5325    -0.5340 C.ar    
  14 C14           -3.1950    -2.6664     0.2874 C.ar    
  15 C15           -4.2784    -3.5256     0.3412 C.ar    
  16 N16           -5.3623    -3.2660    -0.3655 N.ar    
  17 N17           -5.4655    -2.2327    -1.1182 N.ar    
  18 C18           -4.4962    -1.3477    -1.2382 C.ar    
  19 O19           -3.2293     2.6245    -0.6376 O.2     
  20 O20            4.8453     1.4953    -0.0460 O.3     
  21 O21            3.6612     3.3730    -0.0153 O.2     
  22 C22            6.0557     2.2973    -0.0528 C.3     
  23 H23           -1.5521     0.6500    -2.2819 H       
  24 H24           -3.3184     0.5892    -2.0450 H       
  25 H25           -1.1999     2.9347     0.5847 H       
  26 H26            1.1796     3.1715     0.0114 H       
  27 H27            3.3503    -0.5233    -0.0498 H       
  28 H28            1.2541    -1.7589    -0.0321 H       
  29 H29           -2.2991    -2.8617     0.8579 H       
  30 H30           -4.2368    -4.4089     0.9612 H       
  31 H31           -4.6206    -0.4897    -1.8823 H       
  32 H32            6.0852     2.9183     0.8425 H       
  33 H33            6.9261     1.6413    -0.0689 H       
  34 H34            6.0645     2.9343    -0.9373 H       
@<TRIPOS>BOND
   1    1    2 ar
   2    1    8 ar
   3    1    7 1
   4    2    3 1
   5    2   11 ar
   6    3    4 2
   7    4    5 1
   8    4   13 1
   9    5    6 1
  10    5   23 1
  11    5   24 1
  12    6    7 am
  13    6   19 2
  14    7   25 1
  15    8    9 ar
  16    8   26 1
  17    9   10 ar
  18    9   12 1
  19   10   11 ar
  20   10   27 1
  21   11   28 1
  22   12   20 1
  23   12   21 2
  24   13   14 ar
  25   13   18 ar
  26   14   15 ar
  27   14   29 1
  28   15   16 ar
  29   15   30 1
  30   16   17 ar
  31   17   18 ar
  32   18   31 1
  33   20   22 1
  34   22   32 1
  35   22   33 1
  36   22   34 1

#	End of record

