#	Name: ASD04910494
#	Creating user name:	WinNT
#	Creation time:	15. 06. 2019 20:56

#	Modifying user name:	WinNT
#	Modification time:	15. 06. 2019 20:56

#	Program:	/corina/corina34_cracker 3.40 0067  02.08.2006

@<TRIPOS>MOLECULE
ASD04910494
  62   65    0    0    0
SMALL
NO_CHARGES


@<TRIPOS>ATOM
   1 C1            -0.1531     1.2938    -0.4624 C.ar    
   2 C2            -0.0923    -0.0732    -0.2867 C.ar    
   3 C3             1.1335    -0.7114    -0.2210 C.ar    
   4 C4             2.3056     0.0156    -0.3309 C.ar    
   5 C5             2.2588     1.3831    -0.5063 C.ar    
   6 C6             1.0255     2.0331    -0.5739 C.ar    
   7 C7             0.9678     3.4984    -0.7619 C.2     
   8 N8            -0.2247     4.1231    -0.8267 N.am    
   9 O9             1.9959     4.1398    -0.8579 O.2     
  10 C10           -0.2818     5.5751    -1.0129 C.3     
  11 C11           -1.7430     6.0271    -1.0521 C.3     
  12 C12           -1.8018     7.5208    -1.2436 C.2     
  13 O13           -2.9894     8.1429    -1.3082 O.3     
  14 O14           -0.7798     8.1583    -1.3390 O.2     
  15 C15            1.1923    -2.2049    -0.0285 C.3     
  16 C16            1.4431    -2.8834    -1.3767 C.3     
  17 N17            2.2807    -2.5358     0.8946 N.pl3   
  18 C18            1.5474    -4.4071    -1.1886 C.3     
  19 C19            2.0539    -2.5280     2.2745 C.ar    
  20 C20            3.0433    -2.9613     3.1548 C.ar    
  21 C21            2.7747    -2.9355     4.5120 C.ar    
  22 C22            1.5366    -2.4818     4.9490 C.ar    
  23 N23            0.6200    -2.0776     4.0849 N.ar    
  24 C24            0.8420    -2.0829     2.7854 C.ar    
  25 N25            1.2554    -2.4525     6.3197 N.pl3   
  26 C26            0.0943    -2.0362     6.8901 C.2     
  27 C27            0.2275    -2.1660     8.2309 C.2     
  28 C28            1.5051    -2.6757     8.4904 C.2     
  29 N29            2.1185    -2.8526     7.3481 N.2     
  30 Cl30          -0.9743    -1.7696     9.4194 Cl      
  31 C31            0.2495    -2.6369    -2.3224 C.3     
  32 C32            0.1044    -3.9655    -3.1052 C.3     
  33 C33            0.4137    -5.0333    -2.0266 C.3     
  34 C34            2.0752    -2.9751     9.8529 C.3     
  35 H35           -1.1107     1.7903    -0.5180 H       
  36 H36           -1.0035    -0.6463    -0.2000 H       
  37 H37            3.2593    -0.4887    -0.2788 H       
  38 H38            3.1745     1.9495    -0.5912 H       
  39 H39           -1.0451     3.6113    -0.7501 H       
  40 H40            0.2290     6.0679    -0.1856 H       
  41 H41            0.2059     5.8406    -1.9509 H       
  42 H42           -2.2537     5.5344    -1.8793 H       
  43 H43           -2.2307     5.7617    -0.1141 H       
  44 H44           -2.9765     9.1019    -1.4318 H       
  45 H45            0.2465    -2.5555     0.3844 H       
  46 H46            2.3599    -2.4987    -1.8232 H       
  47 H47            3.1587    -2.7603     0.5487 H       
  48 H48            2.5146    -4.7619    -1.5447 H       
  49 H49            1.4195    -4.6631    -0.1368 H       
  50 H50            3.9971    -3.3094     2.7866 H       
  51 H51            3.5183    -3.2645     5.2228 H       
  52 H52            0.0696    -1.7455     2.1102 H       
  53 H53           -0.7767    -1.6681     6.3683 H       
  54 H54           -0.6548    -2.4308    -1.7498 H       
  55 H55            0.4664    -1.8143    -3.0040 H       
  56 H56           -0.9111    -4.0819    -3.4839 H       
  57 H57            0.8290    -4.0162    -3.9179 H       
  58 H58            0.7504    -5.9595    -2.4923 H       
  59 H59           -0.4641    -5.2142    -1.4062 H       
  60 H60            1.8420    -4.0042    10.1262 H       
  61 H61            3.1567    -2.8409     9.8318 H       
  62 H62            1.6391    -2.2967    10.5863 H       
@<TRIPOS>BOND
   1    1    2 ar
   2    1    6 ar
   3    1   35 1
   4    2    3 ar
   5    2   36 1
   6    3    4 ar
   7    3   15 1
   8    4    5 ar
   9    4   37 1
  10    5    6 ar
  11    5   38 1
  12    6    7 1
  13    7    8 am
  14    7    9 2
  15    8   10 1
  16    8   39 1
  17   10   11 1
  18   10   40 1
  19   10   41 1
  20   11   12 1
  21   11   42 1
  22   11   43 1
  23   12   13 1
  24   12   14 2
  25   13   44 1
  26   15   16 1
  27   15   17 1
  28   15   45 1
  29   16   18 1
  30   16   31 1
  31   16   46 1
  32   17   19 1
  33   17   47 1
  34   18   33 1
  35   18   48 1
  36   18   49 1
  37   19   20 ar
  38   19   24 ar
  39   20   21 ar
  40   20   50 1
  41   21   22 ar
  42   21   51 1
  43   22   23 ar
  44   22   25 1
  45   23   24 ar
  46   24   52 1
  47   25   26 1
  48   25   29 1
  49   26   27 2
  50   26   53 1
  51   27   28 1
  52   27   30 1
  53   28   29 2
  54   28   34 1
  55   31   32 1
  56   31   54 1
  57   31   55 1
  58   32   33 1
  59   32   56 1
  60   32   57 1
  61   33   58 1
  62   33   59 1
  63   34   60 1
  64   34   61 1
  65   34   62 1

#	End of record

