#	Name: ASD03091888
#	Creating user name:	WinNT
#	Creation time:	15. 06. 2019 20:31

#	Modifying user name:	WinNT
#	Modification time:	15. 06. 2019 20:31

#	Program:	/corina/corina34_cracker 3.40 0067  02.08.2006

@<TRIPOS>MOLECULE
ASD03091888
  38   40    0    0    0
SMALL
NO_CHARGES


@<TRIPOS>ATOM
   1 O1             0.0021    -0.0041     0.0020 O.3     
   2 N2            -0.0178     1.4588     0.0101 N.4     
   3 C3            -0.7179     1.9163    -1.1902 C.3     
   4 C4            -0.6951     1.9033     1.2282 C.3     
   5 C5             1.3685     1.9387    -0.0006 C.3     
   6 C6            -2.1414     1.4052     1.2659 C.3     
   7 C7            -2.1643     1.4176    -1.2066 C.3     
   8 C8            -2.8877     1.9191     0.0322 C.3     
   9 C9             0.0319     1.3529     2.4622 C.3     
  10 C10           -0.0134     1.3819    -2.4439 C.3     
  11 C11            1.6311     2.7964    -1.2396 C.3     
  12 C12            1.6604     2.7675     1.2514 C.3     
  13 C13            1.4114     1.9413    -2.4921 C.3     
  14 C14            1.4587     1.9084     2.4897 C.3     
  15 C15           -4.3253     1.3957     0.0430 C.3     
  16 H16           -0.7115     3.0059    -1.2186 H       
  17 H17           -0.6871     2.9926     1.2689 H       
  18 H18            2.0411     1.0811    -0.0134 H       
  19 H19           -2.6698     1.7968    -2.0948 H       
  20 H20           -2.1732     0.3277    -1.2200 H       
  21 H21           -2.1506     0.3153     1.2687 H       
  22 H22           -2.6302     1.7756     2.1670 H       
  23 H23           -2.8923     3.0091     0.0325 H       
  24 H24            0.0233     0.2932    -2.4055 H       
  25 H25           -0.5598     1.6986    -3.3323 H       
  26 H26           -0.4967     1.6606     3.3644 H       
  27 H27            0.0651     0.2646     2.4106 H       
  28 H28            0.9439     3.6424    -1.2501 H       
  29 H29            2.6588     3.1593    -1.2211 H       
  30 H30            2.6882     3.1290     1.2182 H       
  31 H31            0.9754     3.6142     1.2965 H       
  32 H32            2.1286     1.1205    -2.5077 H       
  33 H33            1.5354     2.5559    -3.3837 H       
  34 H34            1.6016     2.5110     3.3866 H       
  35 H35            2.1739     1.0859     2.4805 H       
  36 H36           -4.8322     1.7444     0.9428 H       
  37 H37           -4.8527     1.7639    -0.8370 H       
  38 H38           -4.3153     0.3058     0.0309 H       
@<TRIPOS>BOND
   1    1    2 1
   2    2    5 1
   3    2    3 1
   4    2    4 1
   5    3    7 1
   6    3   10 1
   7    3   16 1
   8    4    6 1
   9    4    9 1
  10    4   17 1
  11    5   11 1
  12    5   12 1
  13    5   18 1
  14    6    8 1
  15    6   21 1
  16    6   22 1
  17    7    8 1
  18    7   19 1
  19    7   20 1
  20    8   15 1
  21    8   23 1
  22    9   14 1
  23    9   26 1
  24    9   27 1
  25   10   13 1
  26   10   24 1
  27   10   25 1
  28   11   13 1
  29   11   28 1
  30   11   29 1
  31   12   14 1
  32   12   30 1
  33   12   31 1
  34   13   32 1
  35   13   33 1
  36   14   34 1
  37   14   35 1
  38   15   36 1
  39   15   37 1
  40   15   38 1

#	End of record

