#	Name: ASD00844825
#	Creating user name:	WinNT
#	Creation time:	15. 06. 2019 18:51

#	Modifying user name:	WinNT
#	Modification time:	15. 06. 2019 18:51

#	Program:	/corina/corina34_cracker 3.40 0067  02.08.2006

@<TRIPOS>MOLECULE
ASD00844825
  98  103    0    0    0
SMALL
NO_CHARGES


@<TRIPOS>ATOM
   1 F1             5.6875    -2.0441    -2.1391 F       
   2 C2             0.6734     1.3169    -0.6067 C.ar    
   3 C3             0.9460    -0.0233    -0.8386 C.ar    
   4 C4             0.8505    -0.9381     0.2003 C.ar    
   5 C5             0.4844    -0.5125     1.4623 C.ar    
   6 C6             0.2127     0.8240     1.6908 C.ar    
   7 C7             0.3076     1.7376     0.6575 C.ar    
   8 C8             1.1454    -2.3949    -0.0483 C.3     
   9 C9             0.8499    -3.2145     1.1897 C.2     
  10 C10            0.3330    -2.9094    -1.2382 C.3     
  11 C11           -1.1291    -2.6255    -1.0087 C.2     
  12 N12           -2.0460    -3.0483    -1.9014 N.am    
  13 O13           -1.4807    -2.0165    -0.0206 O.2     
  14 C14           -3.4601    -2.6775    -1.7549 C.3     
  15 C15           -4.3090    -3.9524    -1.7768 C.3     
  16 C16           -3.9960    -4.7472    -3.0466 C.3     
  17 C17           -2.5195    -5.1499    -3.0475 C.3     
  18 C18           -1.6494    -3.8839    -3.0431 C.3     
  19 C19           -4.8672    -6.0042    -3.0890 C.3     
  20 C20           -6.3449    -5.6028    -3.0900 C.3     
  21 C21           -7.2101    -6.8608    -3.1939 C.3     
  22 N22           -6.8798    -7.5830    -4.4291 N.3     
  23 C23           -5.4778    -8.0198    -4.4300 C.3     
  24 C24           -4.5609    -6.7964    -4.3630 C.3     
  25 C25           -7.7860    -8.7213    -4.6318 C.3     
  26 O26           -0.2272    -3.3338     1.7346 O.2     
  27 N27            2.0047    -3.7858     1.5712 N.am    
  28 C28            2.6239    -2.6032    -0.2831 C.ar    
  29 C29            3.0653    -3.4474     0.7281 C.ar    
  30 C30            3.4943    -2.1335    -1.2406 C.ar    
  31 C31            4.8295    -2.5030    -1.2018 C.ar    
  32 C32            5.2814    -3.3445    -0.1980 C.ar    
  33 C33            4.4083    -3.8157     0.7624 C.ar    
  34 Cl34           6.9535    -3.8087    -0.1475 Cl      
  35 C35            1.8589    -6.4243     2.3403 C.ar    
  36 C36            0.6075    -6.7830     1.8612 C.ar    
  37 C37            2.8757    -7.3588     2.3808 C.ar    
  38 C38            2.6470    -8.6503     1.9439 C.ar    
  39 C39            1.4004    -9.0104     1.4658 C.ar    
  40 C40            0.3804    -8.0800     1.4237 C.ar    
  41 H41            1.2242   -10.0200     1.1251 H       
  42 O42           -0.3944    -5.8657     1.8207 O.3     
  43 C43           -1.6566    -6.3055     1.3152 C.3     
  44 C44           -2.6515    -5.1436     1.3466 C.3     
  45 C45           -7.5786    -9.2947    -6.0350 C.3     
  46 C46           -8.5224   -10.4802    -6.2462 C.3     
  47 S47            2.1534    -4.7763     2.8899 S.o2    
  48 O48            3.5185    -4.7217     3.2810 O.2     
  49 O49            1.0813    -4.4466     3.7623 O.2     
  50 O50            1.3056    -0.4396    -2.0812 O.3     
  51 C51            1.2851     0.5373    -3.1239 C.3     
  52 C52            1.8004    -0.0900    -4.4208 C.3     
  53 F53            3.0758    -0.6234    -4.2062 F       
  54 F54            0.9305    -1.1089    -4.8237 F       
  55 H55            0.7514     2.0316    -1.4126 H       
  56 H56            0.4099    -1.2242     2.2712 H       
  57 H57           -0.0741     1.1547     2.6781 H       
  58 H58            0.0949     2.7808     0.8385 H       
  59 H59            0.6623    -2.4067    -2.1476 H       
  60 H60            0.4824    -3.9841    -1.3427 H       
  61 H61           -3.6053    -2.1580    -0.8077 H       
  62 H62           -3.7548    -2.0280    -2.5791 H       
  63 H63           -4.0770    -4.5591    -0.9015 H       
  64 H64           -5.3659    -3.6860    -1.7656 H       
  65 H65           -4.2049    -4.1312    -3.9213 H       
  66 H66           -2.3044    -5.7453    -2.1602 H       
  67 H67           -2.3028    -5.7358    -3.9407 H       
  68 H68           -1.7978    -3.3353    -3.9732 H       
  69 H69           -0.6002    -4.1619    -2.9438 H       
  70 H70           -4.6581    -6.6219    -2.2157 H       
  71 H71           -6.5793    -5.0753    -2.1654 H       
  72 H72           -6.5448    -4.9523    -3.9415 H       
  73 H73           -7.0199    -7.5044    -2.3350 H       
  74 H74           -8.2625    -6.5775    -3.2092 H       
  75 H75           -5.2957    -8.6580    -3.5653 H       
  76 H76           -5.2720    -8.5784    -5.3431 H       
  77 H77           -4.7326    -6.1647    -5.2345 H       
  78 H78           -3.5206    -7.1217    -4.3479 H       
  79 H79           -7.5741    -9.4910    -3.8898 H       
  80 H80           -8.8181    -8.3876    -4.5246 H       
  81 H81            3.1372    -1.4781    -2.0212 H       
  82 H82            4.7675    -4.4712     1.5419 H       
  83 H83            3.8502    -7.0800     2.7538 H       
  84 H84            3.4434    -9.3791     1.9757 H       
  85 H85           -0.5932    -8.3619     1.0509 H       
  86 H86           -1.5359    -6.6529     0.2891 H       
  87 H87           -2.0312    -7.1214     1.9333 H       
  88 H88           -2.7721    -4.7962     2.3727 H       
  89 H89           -2.2768    -4.3277     0.7285 H       
  90 H90           -3.6142    -5.4791     0.9610 H       
  91 H91           -7.7905    -8.5249    -6.7771 H       
  92 H92           -6.5465    -9.6284    -6.1423 H       
  93 H93           -8.3105   -11.2500    -5.5041 H       
  94 H94           -9.5545   -10.1465    -6.1389 H       
  95 H95           -8.3747   -10.8887    -7.2459 H       
  96 H96            0.2643     0.8899    -3.2714 H       
  97 H97            1.9232     1.3768    -2.8479 H       
  98 H98            1.8516     0.6725    -5.1980 H       
@<TRIPOS>BOND
   1    1   31 1
   2    2    3 ar
   3    2    7 ar
   4    2   55 1
   5    3    4 ar
   6    3   50 1
   7    4    5 ar
   8    4    8 1
   9    5    6 ar
  10    5   56 1
  11    6    7 ar
  12    6   57 1
  13    7   58 1
  14    8    9 1
  15    8   10 1
  16    8   28 1
  17    9   26 2
  18    9   27 am
  19   10   11 1
  20   10   59 1
  21   10   60 1
  22   11   12 am
  23   11   13 2
  24   12   14 1
  25   12   18 1
  26   14   15 1
  27   14   61 1
  28   14   62 1
  29   15   16 1
  30   15   63 1
  31   15   64 1
  32   16   17 1
  33   16   19 1
  34   16   65 1
  35   17   18 1
  36   17   66 1
  37   17   67 1
  38   18   68 1
  39   18   69 1
  40   19   20 1
  41   19   24 1
  42   19   70 1
  43   20   21 1
  44   20   71 1
  45   20   72 1
  46   21   22 1
  47   21   73 1
  48   21   74 1
  49   22   23 1
  50   22   25 1
  51   23   24 1
  52   23   75 1
  53   23   76 1
  54   24   77 1
  55   24   78 1
  56   25   45 1
  57   25   79 1
  58   25   80 1
  59   27   47 am
  60   27   29 1
  61   28   29 ar
  62   28   30 ar
  63   29   33 ar
  64   30   31 ar
  65   30   81 1
  66   31   32 ar
  67   32   33 ar
  68   32   34 1
  69   33   82 1
  70   35   36 ar
  71   35   37 ar
  72   35   47 1
  73   36   42 1
  74   36   40 ar
  75   37   38 ar
  76   37   83 1
  77   38   39 ar
  78   38   84 1
  79   39   40 ar
  80   39   41 1
  81   40   85 1
  82   42   43 1
  83   43   44 1
  84   43   86 1
  85   43   87 1
  86   44   88 1
  87   44   89 1
  88   44   90 1
  89   45   46 1
  90   45   91 1
  91   45   92 1
  92   46   93 1
  93   46   94 1
  94   46   95 1
  95   47   48 2
  96   47   49 2
  97   50   51 1
  98   51   52 1
  99   51   96 1
 100   51   97 1
 101   52   53 1
 102   52   54 1
 103   52   98 1

#	End of record

