#	Name: ASD05790020
#	Creating user name:	WinNT
#	Creation time:	15. 06. 2019 21:03

#	Modifying user name:	WinNT
#	Modification time:	15. 06. 2019 21:03

#	Program:	/corina/corina34_cracker 3.40 0067  02.08.2006

@<TRIPOS>MOLECULE
ASD05790020
  49   52    0    0    0
SMALL
NO_CHARGES


@<TRIPOS>ATOM
   1 C1            -0.1753     1.4722    -0.5693 C.2     
   2 C2            -0.1532    -0.0033    -0.5732 C.ar    
   3 C3             0.8994    -0.6867    -1.1880 C.ar    
   4 C4             0.9163    -2.0635    -1.1894 C.ar    
   5 C5            -0.1120    -2.7737    -0.5808 C.ar    
   6 C6            -1.1610    -2.0978     0.0314 C.ar    
   7 C7            -1.1819    -0.7210     0.0430 C.ar    
   8 O8             0.7232     2.0951    -1.1016 O.2     
   9 N9            -1.1942     2.1294     0.0193 N.am    
  10 O10           -0.0920    -4.1307    -0.5847 O.3     
  11 C11           -1.1799    -4.7974     0.0586 C.3     
  12 F12           -2.3805    -4.4374    -0.5627 F       
  13 F13           -1.0014    -6.1816    -0.0383 F       
  14 F14           -1.2228    -4.4260     1.4067 F       
  15 C15           -1.1619     3.5218     0.1191 C.ar    
  16 C16           -2.3411     4.2520     0.0191 C.ar    
  17 C17           -2.3127     5.6259     0.1171 C.ar    
  18 C18           -1.0979     6.2852     0.3173 C.ar    
  19 C19            0.0846     5.5488     0.4173 C.ar    
  20 C20            0.0486     4.1748     0.3241 C.ar    
  21 O21           -2.1300     8.5732     0.3426 O.3     
  22 C22           -1.0637     7.7584     0.4224 C.2     
  23 N23            0.0117     8.4852     0.6094 N.2     
  24 C24           -0.3497     9.7846     0.6526 C.2     
  25 C25           -1.6950     9.8403     0.4851 C.2     
  26 C26           -2.5432    11.0857     0.4618 C.3     
  27 F27           -2.6391    11.5602    -0.8508 F       
  28 F28           -3.8221    10.7880     0.9446 F       
  29 F29           -1.9560    12.0650     1.2700 F       
  30 C30            0.5586    10.9417     0.8483 C.ar    
  31 C31            1.6702    10.8252     1.6805 C.ar    
  32 C32            2.5118    11.9044     1.8585 C.ar    
  33 C33            2.2533    13.1002     1.2130 C.ar    
  34 C34            1.1513    13.2214     0.3858 C.ar    
  35 C35            0.3062    12.1469     0.1961 C.ar    
  36 H36            1.6984    -0.1356    -1.6617 H       
  37 H37            1.7294    -2.5924    -1.6643 H       
  38 H38           -1.9585    -2.6532     0.5026 H       
  39 H39           -1.9949    -0.1965     0.5231 H       
  40 H40           -1.9498     1.6351     0.3736 H       
  41 H41           -3.2801     3.7416    -0.1361 H       
  42 H42           -3.2288     6.1925     0.0390 H       
  43 H43            1.0256     6.0557     0.5721 H       
  44 H44            0.9621     3.6045     0.4058 H       
  45 H45            1.8725     9.8922     2.1855 H       
  46 H46            3.3737    11.8153     2.5032 H       
  47 H47            2.9142    13.9424     1.3557 H       
  48 H48            0.9540    14.1575    -0.1155 H       
  49 H49           -0.5515    12.2413    -0.4535 H       
@<TRIPOS>BOND
   1    1    2 1
   2    1    8 2
   3    1    9 am
   4    2    3 ar
   5    2    7 ar
   6    3    4 ar
   7    3   36 1
   8    4    5 ar
   9    4   37 1
  10    5    6 ar
  11    5   10 1
  12    6    7 ar
  13    6   38 1
  14    7   39 1
  15    9   15 1
  16    9   40 1
  17   10   11 1
  18   11   12 1
  19   11   13 1
  20   11   14 1
  21   15   16 ar
  22   15   20 ar
  23   16   17 ar
  24   16   41 1
  25   17   18 ar
  26   17   42 1
  27   18   19 ar
  28   18   22 1
  29   19   20 ar
  30   19   43 1
  31   20   44 1
  32   21   22 1
  33   21   25 1
  34   22   23 2
  35   23   24 1
  36   24   25 2
  37   24   30 1
  38   25   26 1
  39   26   27 1
  40   26   28 1
  41   26   29 1
  42   30   31 ar
  43   30   35 ar
  44   31   32 ar
  45   31   45 1
  46   32   33 ar
  47   32   46 1
  48   33   34 ar
  49   33   47 1
  50   34   35 ar
  51   34   48 1
  52   35   49 1

#	End of record

