#	Name: ASD01885665
#	Creating user name:	WinNT
#	Creation time:	15. 06. 2019 19:50

#	Modifying user name:	WinNT
#	Modification time:	15. 06. 2019 19:50

#	Program:	/corina/corina34_cracker 3.40 0067  02.08.2006

@<TRIPOS>MOLECULE
ASD01885665
  47   50    0    0    0
SMALL
NO_CHARGES


@<TRIPOS>ATOM
   1 C1            -0.0160     1.3289     0.0093 C.ar    
   2 C2             1.2006     2.0570     0.0016 C.ar    
   3 C3             2.4278     1.3475    -0.0140 C.ar    
   4 C4             2.3762    -0.0394    -0.0210 C.ar    
   5 C5             1.1333    -0.6831    -0.0126 C.ar    
   6 N6             0.0021    -0.0041     0.0020 N.ar    
   7 C7            -1.2343     2.0354     0.0189 C.ar    
   8 C8            -1.2256     3.3957     0.0264 C.ar    
   9 C9            -0.0270     4.1069     0.0247 C.ar    
  10 C10            1.1709     3.4578     0.0100 C.ar    
  11 C11            3.7243     2.0637    -0.0230 C.ar    
  12 C12            4.7211     1.7189     0.8896 C.ar    
  13 C13            5.9267     2.3898     0.8762 C.ar    
  14 C14            3.9553     3.0819    -0.9480 C.ar    
  15 C15            1.0867    -2.1652    -0.0201 C.2     
  16 N16           -0.1010    -2.8021    -0.0120 N.am    
  17 O17            2.1193    -2.8054    -0.0335 O.2     
  18 C18           -2.5327     4.1455     0.0361 C.3     
  19 N19           -2.9504     4.3809     1.4204 N.am    
  20 C20           -2.5968     5.4738     2.1080 C.2     
  21 C21           -3.1926     5.4025     3.4970 C.3     
  22 C22           -3.9600     4.0647     3.4929 C.3     
  23 C23           -3.7218     3.5235     2.1001 C.2     
  24 O24           -1.9080     6.3772     1.6849 O.2     
  25 O25           -4.1549     2.4760     1.6703 O.2     
  26 C26            6.1477     3.4030    -0.0396 C.ar    
  27 C27            5.1651     3.7454    -0.9514 C.ar    
  28 C28            7.4663     4.1324    -0.0481 C.3     
  29 H29            3.2883    -0.6177    -0.0333 H       
  30 H30           -2.1719     1.4994     0.0200 H       
  31 H31           -0.0480     5.1867     0.0304 H       
  32 H32            2.0928     4.0203     0.0041 H       
  33 H33            4.5496     0.9286     1.6054 H       
  34 H34            6.6994     2.1237     1.5823 H       
  35 H35            3.1890     3.3500    -1.6602 H       
  36 H36           -0.9254    -2.2910    -0.0013 H       
  37 H37           -0.1315    -3.7716    -0.0169 H       
  38 H38           -2.4072     5.1011    -0.4731 H       
  39 H39           -3.2929     3.5571    -0.4778 H       
  40 H40           -2.4062     5.3913     4.2517 H       
  41 H41           -3.8750     6.2357     3.6649 H       
  42 H42           -3.5554     3.3880     4.2456 H       
  43 H43           -5.0242     4.2324     3.6588 H       
  44 H44            5.3434     4.5372    -1.6639 H       
  45 H45            8.1590     3.6229    -0.7180 H       
  46 H46            7.3136     5.1551    -0.3928 H       
  47 H47            7.8802     4.1467     0.9601 H       
@<TRIPOS>BOND
   1    1    6 ar
   2    1    2 ar
   3    1    7 ar
   4    2    3 ar
   5    2   10 ar
   6    3   11 1
   7    3    4 ar
   8    4    5 ar
   9    4   29 1
  10    5   15 1
  11    5    6 ar
  12    7    8 ar
  13    7   30 1
  14    8   18 1
  15    8    9 ar
  16    9   10 ar
  17    9   31 1
  18   10   32 1
  19   11   12 ar
  20   11   14 ar
  21   12   13 ar
  22   12   33 1
  23   13   26 ar
  24   13   34 1
  25   14   27 ar
  26   14   35 1
  27   15   16 am
  28   15   17 2
  29   16   36 1
  30   16   37 1
  31   18   19 1
  32   18   38 1
  33   18   39 1
  34   19   20 am
  35   19   23 am
  36   20   21 1
  37   20   24 2
  38   21   22 1
  39   21   40 1
  40   21   41 1
  41   22   23 1
  42   22   42 1
  43   22   43 1
  44   23   25 2
  45   26   27 ar
  46   26   28 1
  47   27   44 1
  48   28   45 1
  49   28   46 1
  50   28   47 1

#	End of record

