#	Name: ASD03240019
#	Creating user name:	WinNT
#	Creation time:	15. 06. 2019 20:34

#	Modifying user name:	WinNT
#	Modification time:	15. 06. 2019 20:34

#	Program:	/corina/corina34_cracker 3.40 0067  02.08.2006

@<TRIPOS>MOLECULE
ASD03240019
  76   83    0    0    0
SMALL
NO_CHARGES


@<TRIPOS>ATOM
   1 C1             0.0558     1.4986     0.1650 C.ar    
   2 C2            -0.0623     0.1022    -0.0592 C.ar    
   3 N3             1.2667     2.0669     0.2079 N.ar    
   4 C4             2.3460     1.3252     0.0413 C.ar    
   5 C5             2.2279    -0.0690    -0.1831 C.ar    
   6 N6             1.0380    -0.6393    -0.2267 N.ar    
   7 C7             3.4461    -0.8909    -0.3692 C.ar    
   8 C8             3.6868     1.9534     0.0886 C.ar    
   9 C9             3.9252     3.1468    -0.5926 C.ar    
  10 C10            5.1760     3.7274    -0.5443 C.ar    
  11 C11            6.1926     3.1278     0.1774 C.ar    
  12 C12            5.9622     1.9440     0.8552 C.ar    
  13 C13            4.7140     1.3568     0.8192 C.ar    
  14 C14            3.5745    -2.1121     0.2922 C.ar    
  15 C15            4.7115    -2.8735     0.1144 C.ar    
  16 C16            5.7229    -2.4276    -0.7174 C.ar    
  17 C17            5.6014    -1.2171    -1.3762 C.ar    
  18 C18            4.4668    -0.4494    -1.2110 C.ar    
  19 C19            6.9625    -3.2636    -0.9064 C.3     
  20 N20            6.7680    -4.1786    -2.0390 N.3     
  21 C21            8.0276    -4.8392    -2.4042 C.3     
  22 C22            7.8205    -5.6698    -3.6728 C.3     
  23 C23            6.7293    -6.7139    -3.4208 C.3     
  24 C24            5.4418    -6.0027    -2.9953 C.3     
  25 C25            5.7179    -5.1625    -1.7463 C.3     
  26 N26            6.4857    -7.4737    -4.6495 N.am    
  27 C27            6.6385    -8.8499    -4.8007 C.ar    
  28 C28            6.3029    -9.1504    -6.1223 C.ar    
  29 N29            5.9565    -7.9476    -6.7331 N.am    
  30 C30            6.0703    -6.9616    -5.8233 C.2     
  31 C31            7.0293    -9.8643    -3.9398 C.ar    
  32 C32            7.0847   -11.1675    -4.3933 C.ar    
  33 C33            6.7519   -11.4655    -5.7036 C.ar    
  34 C34            6.3616   -10.4620    -6.5685 C.ar    
  35 O35            5.8410    -5.7850    -6.0326 O.2     
  36 C36           -1.3386    -0.4884    -0.1024 C.ar    
  37 C37           -2.4483     0.2757     0.0692 C.ar    
  38 C38           -2.3430     1.6582     0.2915 C.ar    
  39 C39           -1.1042     2.2685     0.3455 C.ar    
  40 C40           -3.5718     2.4696     0.4753 C.2     
  41 N41           -3.6337     3.7909     0.6940 N.2     
  42 N42           -4.8808     4.1040     0.7965 N.2     
  43 N43           -5.5920     3.0409     0.6518 N.pl3   
  44 N44           -4.8154     2.0325     0.4495 N.2     
  45 C45           -7.0551     2.9867     0.7030 C.3     
  46 H46            3.1325     3.6154    -1.1569 H       
  47 H47            5.3619     4.6515    -1.0714 H       
  48 H48            7.1702     3.5856     0.2116 H       
  49 H49            6.7598     1.4804     1.4167 H       
  50 H50            4.5352     0.4328     1.3489 H       
  51 H51            2.7859    -2.4609     0.9423 H       
  52 H52            4.8121    -3.8193     0.6259 H       
  53 H53            6.3944    -0.8742    -2.0243 H       
  54 H54            4.3730     0.4954    -1.7257 H       
  55 H55            7.8129    -2.6121    -1.1076 H       
  56 H56            7.1529    -3.8407    -0.0016 H       
  57 H57            8.7940    -4.0854    -2.5847 H       
  58 H58            8.3447    -5.4916    -1.5907 H       
  59 H59            7.5167    -5.0159    -4.4903 H       
  60 H60            8.7516    -6.1723    -3.9348 H       
  61 H61            7.0495    -7.3919    -2.6297 H       
  62 H62            5.1006    -5.3541    -3.8021 H       
  63 H63            4.6734    -6.7432    -2.7732 H       
  64 H64            6.0458    -5.8134    -0.9359 H       
  65 H65            4.8066    -4.6435    -1.4490 H       
  66 H66            5.6771    -7.8392    -7.6557 H       
  67 H67            7.2900    -9.6356    -2.9169 H       
  68 H68            7.3894   -11.9576    -3.7229 H       
  69 H69            6.7977   -12.4871    -6.0510 H       
  70 H70            6.1023   -10.6983    -7.5899 H       
  71 H71           -1.4360    -1.5505    -0.2726 H       
  72 H72           -3.4241    -0.1858     0.0337 H       
  73 H73           -1.0294     3.3322     0.5168 H       
  74 H74           -7.4596     3.1386    -0.2977 H       
  75 H75           -7.3697     2.0128     1.0781 H       
  76 H76           -7.4246     3.7683     1.3668 H       
@<TRIPOS>BOND
   1    1    2 ar
   2    1    3 ar
   3    1   39 ar
   4    2   36 ar
   5    2    6 ar
   6    3    4 ar
   7    4    5 ar
   8    4    8 1
   9    5    6 ar
  10    5    7 1
  11    7   14 ar
  12    7   18 ar
  13    8    9 ar
  14    8   13 ar
  15    9   10 ar
  16    9   46 1
  17   10   11 ar
  18   10   47 1
  19   11   12 ar
  20   11   48 1
  21   12   13 ar
  22   12   49 1
  23   13   50 1
  24   14   15 ar
  25   14   51 1
  26   15   16 ar
  27   15   52 1
  28   16   17 ar
  29   16   19 1
  30   17   18 ar
  31   17   53 1
  32   18   54 1
  33   19   20 1
  34   19   55 1
  35   19   56 1
  36   20   21 1
  37   20   25 1
  38   21   22 1
  39   21   57 1
  40   21   58 1
  41   22   23 1
  42   22   59 1
  43   22   60 1
  44   23   24 1
  45   23   26 1
  46   23   61 1
  47   24   25 1
  48   24   62 1
  49   24   63 1
  50   25   64 1
  51   25   65 1
  52   26   27 1
  53   26   30 am
  54   27   28 ar
  55   27   31 ar
  56   28   29 1
  57   28   34 ar
  58   29   30 am
  59   29   66 1
  60   30   35 2
  61   31   32 ar
  62   31   67 1
  63   32   33 ar
  64   32   68 1
  65   33   34 ar
  66   33   69 1
  67   34   70 1
  68   36   37 ar
  69   36   71 1
  70   37   38 ar
  71   37   72 1
  72   38   39 ar
  73   38   40 1
  74   39   73 1
  75   40   41 1
  76   40   44 2
  77   41   42 2
  78   42   43 1
  79   43   44 1
  80   43   45 1
  81   45   74 1
  82   45   75 1
  83   45   76 1

#	End of record

