#	Name: ASD05143014
#	Creating user name:	WinNT
#	Creation time:	15. 06. 2019 20:57

#	Modifying user name:	WinNT
#	Modification time:	15. 06. 2019 20:57

#	Program:	/corina/corina34_cracker 3.40 0067  02.08.2006

@<TRIPOS>MOLECULE
ASD05143014
 145  148    0    0    0
SMALL
NO_CHARGES


@<TRIPOS>ATOM
   1 C1            -2.1144     5.3846     7.5237 C.2     
   2 C2            -1.6301     4.6450     8.7441 C.3     
   3 N3            -1.2258     5.9217     6.6644 N.am    
   4 O4            -3.3038     5.4921     7.3121 O.2     
   5 C5            -1.6967     6.6407     5.4780 C.3     
   6 C6            -2.5293     5.6976     4.6072 C.3     
   7 C7            -2.5448     7.8114     5.9037 C.2     
   8 C8            -1.6368     4.5756     4.0728 C.3     
   9 C9            -2.4695     3.6326     3.2020 C.3     
  10 N10           -1.6149     2.5582     2.6904 N.pl3   
  11 C11           -2.1467     1.5844     1.8786 C.2     
  12 N12           -1.3448     0.5762     1.3985 N.pl3   
  13 N13           -3.4112     1.6171     1.5641 N.2     
  14 O14           -3.0385     7.8315     7.0113 O.2     
  15 N15           -2.7546     8.8360     5.0536 N.am    
  16 C16           -3.5791     9.9740     5.4675 C.3     
  17 C17           -2.6765    11.1647     5.7968 C.3     
  18 C18           -1.5213    10.6996     6.6853 C.3     
  19 C19           -0.3793    10.2308     5.8209 C.2     
  20 O20           -0.5811     9.5015     4.8732 O.2     
  21 N21            0.8875    10.6430     6.1243 N.am    
  22 C22            1.9516    10.1325     5.2302 C.3     
  23 C23            2.1030    11.0941     4.0498 C.3     
  24 C24            2.7675    10.3647     2.8805 C.3     
  25 C25            3.7266    11.3169     2.1633 C.3     
  26 N26            3.6764    11.0410     0.7135 N.am    
  27 C27            5.1287    11.0982     2.6708 C.2     
  28 N28            5.5151    11.6456     3.8402 N.am    
  29 O29            5.9093    10.4297     2.0269 O.2     
  30 C30            2.8510    11.8298    -0.0274 C.2     
  31 O31            2.2066    12.7111     0.5008 O.2     
  32 C32            2.7482    11.5946    -1.5123 C.3     
  33 N33            1.5340    12.2777    -2.0147 N.am    
  34 C34            3.9846    12.1653    -2.2098 C.3     
  35 C35            0.4812    11.4584    -2.3095 C.2     
  36 O36            0.5727    10.2579    -2.1633 O.2     
  37 C37           -0.7962    12.0747    -2.8193 C.3     
  38 N38           -1.9232    11.1813    -2.4853 N.am    
  39 C39           -1.0082    13.4372    -2.1564 C.3     
  40 C40           -3.0284    11.7689    -1.9497 C.2     
  41 O41           -3.0581    12.9666    -1.7614 O.2     
  42 C42           -4.2144    10.9097    -1.5947 C.3     
  43 C43            3.9379    11.8212    -3.6762 C.2     
  44 C44            3.2406    12.5692    -4.7250 C.ar    
  45 C45            3.4796    11.8728    -5.9236 C.ar    
  46 N46            4.2645    10.7853    -5.6118 N.pl3   
  47 C47            4.5321    10.7742    -4.2700 C.2     
  48 C48            2.4638    13.7294    -4.7365 C.ar    
  49 C49            1.9391    14.1828    -5.9137 C.ar    
  50 C50            2.1717    13.4988    -7.0992 C.ar    
  51 C51            2.9358    12.3527    -7.1108 C.ar    
  52 N52           -4.8014    11.4099    -0.3307 N.am    
  53 C53           -3.7614     9.4598    -1.4118 C.3     
  54 C54           -4.9601     8.5906    -1.1311 C.ar    
  55 C55           -5.9882     8.5136    -2.0512 C.ar    
  56 C56           -7.0886     7.7151    -1.7935 C.ar    
  57 C57           -7.1587     6.9945    -0.6148 C.ar    
  58 C58           -6.1296     7.0724     0.3048 C.ar    
  59 C59           -5.0283     7.8660     0.0445 C.ar    
  60 C60           -4.5163    10.3488     4.3483 C.2     
  61 N61           -3.9983    10.8373     3.1880 N.am    
  62 O62           -5.7148    10.2168     4.4794 O.2     
  63 C63           -4.9650    11.1874     2.1283 C.3     
  64 C64           -5.1868    12.7012     2.1164 C.3     
  65 C65           -4.4091    10.7481     0.7983 C.2     
  66 C66           -5.8513    13.1297     3.4263 C.3     
  67 N67           -6.0642    14.5831     3.4149 N.3     
  68 O68           -3.6276     9.8231     0.7313 O.2     
  69 C69           -1.0196    13.2683    -0.6358 C.3     
  70 C70           -1.3783    14.6019     0.0228 C.3     
  71 N71           -1.3892    14.4402     1.4788 N.pl3   
  72 C72           -1.6873    15.5115     2.2872 C.2     
  73 N73           -1.6975    15.3597     3.6536 N.pl3   
  74 N74           -1.9601    16.6711     1.7583 N.2     
  75 Cl75          -8.3808     7.6182    -2.9487 Cl      
  76 H76           -0.5402     4.6484     8.7623 H       
  77 H77           -2.0100     5.1351     9.6405 H       
  78 H78           -1.9897     3.6165     8.7122 H       
  79 H79           -0.2745     5.8322     6.8315 H       
  80 H80           -0.8404     7.0007     4.9077 H       
  81 H81           -3.3346     5.2686     5.2034 H       
  82 H82           -2.9530     6.2542     3.7712 H       
  83 H83           -0.8315     5.0047     3.4766 H       
  84 H84           -1.2131     4.0191     4.9088 H       
  85 H85           -3.2747     3.2035     3.7983 H       
  86 H86           -2.8931     4.1891     2.3661 H       
  87 H87           -0.6739     2.5340     2.9244 H       
  88 H88           -0.4037     0.5519     1.6325 H       
  89 H89           -1.7200    -0.1108     0.8257 H       
  90 H90           -3.7864     0.9300     0.9914 H       
  91 H91           -2.3597     8.8199     4.1678 H       
  92 H92           -4.1577     9.7016     6.3502 H       
  93 H93           -2.2781    11.5848     4.8732 H       
  94 H94           -3.2551    11.9249     6.3216 H       
  95 H95           -1.1875    11.5278     7.3104 H       
  96 H96           -1.8579     9.8790     7.3189 H       
  97 H97            1.0766    11.2297     6.8733 H       
  98 H98            2.8925    10.0744     5.7775 H       
  99 H99            1.6776     9.1433     4.8633 H       
 100 H100           1.1197    11.4513     3.7437 H       
 101 H101           2.7208    11.9411     4.3480 H       
 102 H102           3.3225     9.5053     3.2566 H       
 103 H103           2.0025    10.0255     2.1820 H       
 104 H104           3.4252    12.3477     2.3497 H       
 105 H105           4.2042    10.3342     0.3101 H       
 106 H106           4.8908    12.1804     4.3552 H       
 107 H107           6.4176    11.5049     4.1668 H       
 108 H108           2.6744    10.5251    -1.7093 H       
 109 H109           1.4893    13.2402    -2.1269 H       
 110 H110           4.0009    13.2488    -2.0912 H       
 111 H111           4.8828    11.7375    -1.7646 H       
 112 H112          -0.7359    12.1980    -3.9007 H       
 113 H113          -1.8785    10.2246    -2.6393 H       
 114 H114          -0.1990    14.1097    -2.4412 H       
 115 H115          -1.9603    13.8557    -2.4826 H       
 116 H116          -4.9575    10.9655    -2.3902 H       
 117 H117           4.5834    10.1272    -6.2491 H       
 118 H118           5.1269    10.0291    -3.7626 H       
 119 H119           2.2780    14.2663    -3.8180 H       
 120 H120           1.3383    15.0802    -5.9220 H       
 121 H121           1.7499    13.8694    -8.0218 H       
 122 H122           3.1113    11.8279    -8.0383 H       
 123 H123          -5.4210    12.1558    -0.3059 H       
 124 H124          -3.2681     9.1158    -2.3209 H       
 125 H125          -3.0650     9.3994    -0.5755 H       
 126 H126          -5.9331     9.0767    -2.9712 H       
 127 H127          -8.0174     6.3714    -0.4130 H       
 128 H128          -6.1842     6.5098     1.2251 H       
 129 H129          -4.2244     7.9263     0.7631 H       
 130 H130          -3.0429    10.9499     3.0639 H       
 131 H131          -5.9119    10.6811     2.3158 H       
 132 H132          -4.2274    13.2082     2.0129 H       
 133 H133          -5.8307    12.9676     1.2782 H       
 134 H134          -6.8106    12.6227     3.5298 H       
 135 H135          -5.2073    12.8633     4.2644 H       
 136 H136          -6.6050    14.8630     2.6104 H       
 137 H137          -6.5022    14.8911     4.2700 H       
 138 H138          -1.7585    12.5162    -0.3593 H       
 139 H139          -0.0333    12.9500    -0.2982 H       
 140 H140          -0.6394    15.3540    -0.2537 H       
 141 H141          -2.3646    14.9202    -0.3148 H       
 142 H142          -1.1862    13.5772     1.8724 H       
 143 H143          -1.4945    14.4968     4.0473 H       
 144 H144          -1.9078    16.1156     4.2240 H       
 145 H145          -2.1704    17.4270     2.3286 H       
@<TRIPOS>BOND
   1    1    2 1
   2    1    3 am
   3    1    4 2
   4    2   76 1
   5    2   77 1
   6    2   78 1
   7    3    5 1
   8    3   79 1
   9    5    6 1
  10    5    7 1
  11    5   80 1
  12    6    8 1
  13    6   81 1
  14    6   82 1
  15    7   14 2
  16    7   15 am
  17    8    9 1
  18    8   83 1
  19    8   84 1
  20    9   10 1
  21    9   85 1
  22    9   86 1
  23   10   11 1
  24   10   87 1
  25   11   12 1
  26   11   13 2
  27   12   88 1
  28   12   89 1
  29   13   90 1
  30   15   16 1
  31   15   91 1
  32   16   17 1
  33   16   60 1
  34   16   92 1
  35   17   18 1
  36   17   93 1
  37   17   94 1
  38   18   19 1
  39   18   95 1
  40   18   96 1
  41   19   20 2
  42   19   21 am
  43   21   22 1
  44   21   97 1
  45   22   23 1
  46   22   98 1
  47   22   99 1
  48   23   24 1
  49   23  100 1
  50   23  101 1
  51   24   25 1
  52   24  102 1
  53   24  103 1
  54   25   26 1
  55   25   27 1
  56   25  104 1
  57   26   30 am
  58   26  105 1
  59   27   28 am
  60   27   29 2
  61   28  106 1
  62   28  107 1
  63   30   31 2
  64   30   32 1
  65   32   33 1
  66   32   34 1
  67   32  108 1
  68   33   35 am
  69   33  109 1
  70   34   43 1
  71   34  110 1
  72   34  111 1
  73   35   36 2
  74   35   37 1
  75   37   38 1
  76   37   39 1
  77   37  112 1
  78   38   40 am
  79   38  113 1
  80   39   69 1
  81   39  114 1
  82   39  115 1
  83   40   41 2
  84   40   42 1
  85   42   52 1
  86   42   53 1
  87   42  116 1
  88   43   44 1
  89   43   47 2
  90   44   45 ar
  91   44   48 ar
  92   45   46 1
  93   45   51 ar
  94   46   47 1
  95   46  117 1
  96   47  118 1
  97   48   49 ar
  98   48  119 1
  99   49   50 ar
 100   49  120 1
 101   50   51 ar
 102   50  121 1
 103   51  122 1
 104   52   65 am
 105   52  123 1
 106   53   54 1
 107   53  124 1
 108   53  125 1
 109   54   55 ar
 110   54   59 ar
 111   55   56 ar
 112   55  126 1
 113   56   57 ar
 114   56   75 1
 115   57   58 ar
 116   57  127 1
 117   58   59 ar
 118   58  128 1
 119   59  129 1
 120   60   61 am
 121   60   62 2
 122   61   63 1
 123   61  130 1
 124   63   64 1
 125   63   65 1
 126   63  131 1
 127   64   66 1
 128   64  132 1
 129   64  133 1
 130   65   68 2
 131   66   67 1
 132   66  134 1
 133   66  135 1
 134   67  136 1
 135   67  137 1
 136   69   70 1
 137   69  138 1
 138   69  139 1
 139   70   71 1
 140   70  140 1
 141   70  141 1
 142   71   72 1
 143   71  142 1
 144   72   73 1
 145   72   74 2
 146   73  143 1
 147   73  144 1
 148   74  145 1

#	End of record

