#	Name: ASD06610055
#	Creating user name:	WinNT
#	Creation time:	15. 06. 2019 21:07

#	Modifying user name:	WinNT
#	Modification time:	15. 06. 2019 21:07

#	Program:	/corina/corina34_cracker 3.40 0067  02.08.2006

@<TRIPOS>MOLECULE
ASD06610055
 190  189    0    0    0
SMALL
NO_CHARGES


@<TRIPOS>ATOM
   1 C1             0.0273     1.1700     0.0200 C.2     
   2 O2             0.0267    -0.0423    -0.0170 O.2     
   3 N3             2.4214     1.0280     0.4113 N.3     
   4 C4             1.3321     1.9238     0.0003 C.3     
   5 C5             1.6020     2.4390    -1.4148 C.3     
   6 C6             2.8609     3.3086    -1.4095 C.3     
   7 C7             3.1308     3.8239    -2.8246 C.3     
   8 N8             4.3362     4.6564    -2.8195 N.pl3   
   9 C9             4.7781     5.2330    -3.9862 C.2     
  10 N10            4.1985     4.9439    -5.1155 N.2     
  11 N11            5.8375     6.1195    -3.9607 N.am    
  12 C12           -3.5025     1.9921    -0.4569 C.2     
  13 O13           -3.2481     3.1212    -0.8194 O.2     
  14 N14           -1.1391     1.8431     0.0733 N.am    
  15 C15           -2.4077     1.1105     0.0864 C.3     
  16 C16           -2.7463     0.7027     1.5217 C.3     
  17 C17           -1.6998    -0.2909     2.0300 C.3     
  18 C18           -2.0333    -0.6926     3.4436 C.2     
  19 O19           -3.0080    -0.2314     3.9887 O.2     
  20 O20           -1.2475    -1.5627     4.0973 O.3     
  21 C21           -7.1570     1.9303    -0.5189 C.2     
  22 O22           -7.2095     0.9850     0.2391 O.2     
  23 N23           -4.7643     1.5258    -0.5400 N.am    
  24 C24           -5.8286     2.3828    -1.0682 C.3     
  25 C25           -5.8491     2.2881    -2.5951 C.3     
  26 C26           -4.5486     2.8635    -3.1593 C.3     
  27 C27           -4.5691     2.7688    -4.6862 C.3     
  28 C28           -3.2686     3.3443    -5.2504 C.3     
  29 N29           -3.2883     3.2533    -6.7165 N.3     
  30 C30          -10.6786     2.5500    -1.2787 C.2     
  31 O31          -10.4107     3.1530    -2.2963 O.2     
  32 N32           -8.2867     2.5761    -0.8701 N.am    
  33 C33           -9.5780     2.1362    -0.3361 C.3     
  34 C34           -9.8099     2.7797     1.0325 C.3     
  35 C35           -8.7649     2.2623     2.0230 C.3     
  36 C36           -8.9968     2.9058     3.3916 C.3     
  37 N37           -7.9962     2.4103     4.3400 N.pl3   
  38 C38           -8.0056     2.8513     5.6422 C.2     
  39 N39           -7.1153     2.4105     6.4860 N.2     
  40 N40           -8.9540     3.7573     6.0542 N.pl3   
  41 C41          -14.3247     2.7758    -1.1450 C.2     
  42 O42          -14.3508     2.5500     0.0463 O.2     
  43 N43          -11.9606     2.2500    -0.9909 N.am    
  44 C44          -13.0306     2.6523    -1.9072 C.3     
  45 C45          -13.1842     1.5985    -3.0058 C.3     
  46 C46          -11.9141     1.5612    -3.8580 C.3     
  47 C47          -12.0678     0.5074    -4.9565 C.3     
  48 N48          -10.8516     0.4718    -5.7726 N.pl3   
  49 C49          -10.7572    -0.4045    -6.8277 C.2     
  50 N50           -9.6752    -0.4363    -7.5537 N.2     
  51 N51          -11.8042    -1.2473    -7.1171 N.pl3   
  52 C52          -17.8703     3.0588    -1.9889 C.2     
  53 O53          -17.6655     2.8387    -3.1639 O.2     
  54 N54          -15.4532     3.1371    -1.7873 N.am    
  55 C55          -16.7113     3.2572    -1.0463 C.3     
  56 C56          -16.8002     4.6477    -0.4143 C.3     
  57 O57          -16.8725     5.6355    -1.4445 O.3     
  58 C58          -21.4799     3.6284    -1.8933 C.2     
  59 O59          -21.4140     4.2264    -0.8402 O.2     
  60 N60          -19.1343     3.1258    -1.5262 N.am    
  61 C61          -20.2610     2.9329    -2.4424 C.3     
  62 C62          -20.5495     1.4374    -2.5882 C.3     
  63 C63          -24.5302     3.3513    -1.0646 C.2     
  64 O64          -24.0863     2.2503    -0.8395 O.2     
  65 N65          -22.6433     3.5860    -2.5724 N.am    
  66 C66          -23.8282     4.2621    -2.0385 C.3     
  67 C67          -24.7776     4.6099    -3.1868 C.3     
  68 C68          -24.1198     5.6163    -4.0953 C.2     
  69 O69          -23.0058     6.0145    -3.8496 O.2     
  70 O70          -24.7713     6.0703    -5.1775 O.3     
  71 O71          -25.6487     3.7631    -0.4472 O.3     
  72 C72            6.3563     6.5157    -2.7816 C.2     
  73 O73            5.9517     6.0295    -1.7471 O.2     
  74 C74           18.0005    16.8641     7.6354 C.3     
  75 C75           16.9010    15.8007     7.6021 C.3     
  76 C76           16.4918    15.5354     6.1519 C.3     
  77 C77           15.3922    14.4720     6.1187 C.3     
  78 C78           14.9830    14.2067     4.6685 C.3     
  79 C79           13.8835    13.1433     4.6352 C.3     
  80 C80           13.4743    12.8780     3.1850 C.3     
  81 C81           12.3748    11.8146     3.1518 C.3     
  82 C82           11.9656    11.5493     1.7016 C.3     
  83 C83           10.8660    10.4859     1.6683 C.3     
  84 C84           10.4568    10.2205     0.2181 C.3     
  85 C85            9.3573     9.1572     0.1848 C.3     
  86 C86            8.9481     8.8918    -1.2654 C.3     
  87 C87            7.8486     7.8284    -1.2986 C.3     
  88 C88            7.4394     7.5631    -2.7488 C.3     
  89 H89            2.4947     0.2380    -0.2122 H       
  90 H90            3.2971     1.5260     0.4684 H       
  91 H91            1.2753     2.7665     0.6892 H       
  92 H92            1.7470     1.5939    -2.0877 H       
  93 H93            0.7525     3.0318    -1.7538 H       
  94 H94            2.7159     4.1537    -0.7366 H       
  95 H95            3.7105     2.7158    -1.0705 H       
  96 H96            3.2758     2.9787    -3.4975 H       
  97 H97            2.2813     4.4166    -3.1636 H       
  98 H98            4.8225     4.8008    -1.9927 H       
  99 H99            4.4616     5.4044    -5.9276 H       
 100 H100           6.2079     6.4567    -4.7913 H       
 101 H101          -1.1386     2.8127     0.1030 H       
 102 H102          -2.3184     0.2183    -0.5333 H       
 103 H103          -2.7482     1.5865     2.1597 H       
 104 H104          -3.7312     0.2363     1.5441 H       
 105 H105          -1.6979    -1.1747     1.3920 H       
 106 H106          -0.7148     0.1755     2.0075 H       
 107 H107          -1.5019    -1.7900     5.0021 H       
 108 H108          -4.9677     0.6228    -0.2501 H       
 109 H109          -5.6451     3.4152    -0.7706 H       
 110 H110          -5.9438     1.2439    -2.8931 H       
 111 H111          -6.6956     2.8548    -2.9830 H       
 112 H112          -4.4539     3.9077    -2.8613 H       
 113 H113          -3.7021     2.2968    -2.7715 H       
 114 H114          -4.6638     1.7246    -4.9842 H       
 115 H115          -5.4156     3.3355    -5.0741 H       
 116 H116          -3.1739     4.3885    -4.9524 H       
 117 H117          -2.4221     2.7776    -4.8626 H       
 118 H118          -4.1000     3.7167    -7.0967 H       
 119 H119          -2.4394     3.6274    -7.1134 H       
 120 H120          -8.2447     3.3321    -1.4763 H       
 121 H121          -9.5776     1.0512    -0.2320 H       
 122 H122          -9.7221     3.8626     0.9444 H       
 123 H123         -10.8073     2.5239     1.3900 H       
 124 H124          -8.8527     1.1794     2.1111 H       
 125 H125          -7.7675     2.5181     1.6655 H       
 126 H126          -8.9090     3.9887     3.3035 H       
 127 H127          -9.9942     2.6500     3.7491 H       
 128 H128          -7.3270     1.7711     4.0493 H       
 129 H129          -7.1219     2.7217     7.4047 H       
 130 H130          -9.6165     4.0854     5.4263 H       
 131 H131          -8.9606     4.0685     6.9730 H       
 132 H132         -12.1749     1.7678    -0.1770 H       
 133 H133         -12.7811     3.6130    -2.3577 H       
 134 H134         -13.3458     0.6209    -2.5515 H       
 135 H135         -14.0370     1.8519    -3.6355 H       
 136 H136         -11.7526     2.5388    -4.3123 H       
 137 H137         -11.0613     1.3079    -3.2282 H       
 138 H138         -12.2293    -0.4701    -4.5022 H       
 139 H139         -12.9206     0.7608    -5.5863 H       
 140 H140         -10.1129     1.0664    -5.5684 H       
 141 H141          -9.6086    -1.0545    -8.2982 H       
 142 H142         -12.6094    -1.2237    -6.5768 H       
 143 H143         -11.7376    -1.8656    -7.8615 H       
 144 H144         -15.4323     3.3177    -2.7401 H       
 145 H145         -16.7457     2.4995    -0.2636 H       
 146 H146         -17.6924     4.7071     0.2091 H       
 147 H147         -15.9164     4.8256     0.1983 H       
 148 H148         -16.9310     6.5430    -1.1158 H       
 149 H149         -19.2981     3.3018    -0.5864 H       
 150 H150         -20.0122     3.3517    -3.4175 H       
 151 H151         -21.3878     1.2939    -3.2700 H       
 152 H152         -19.6679     0.9343    -2.9854 H       
 153 H153         -20.7984     1.0187    -1.6131 H       
 154 H154         -22.6960     3.1077    -3.4146 H       
 155 H155         -23.5256     5.1763    -1.5278 H       
 156 H156         -25.0100     3.7074    -3.7521 H       
 157 H157         -25.6975     5.0322    -2.7824 H       
 158 H158         -24.3086     6.7149    -5.7302 H       
 159 H159         -26.0634     3.1439     0.1689 H       
 160 H160          18.8647    16.5109     7.0728 H       
 161 H161          17.6281    17.7859     7.1885 H       
 162 H162          18.2920    17.0531     8.6685 H       
 163 H163          17.2733    14.8789     8.0490 H       
 164 H164          16.0367    16.1540     8.1647 H       
 165 H165          16.1194    16.4572     5.7050 H       
 166 H166          17.3560    15.1822     5.5894 H       
 167 H167          15.7646    13.5502     6.5656 H       
 168 H168          14.5280    14.8253     6.6812 H       
 169 H169          14.6106    15.1285     4.2216 H       
 170 H170          15.8472    13.8535     4.1059 H       
 171 H171          14.2559    12.2215     5.0821 H       
 172 H172          13.0193    13.4965     5.1978 H       
 173 H173          13.1019    13.7998     2.7381 H       
 174 H174          14.3385    12.5247     2.6225 H       
 175 H175          12.7471    10.8928     3.5987 H       
 176 H176          11.5105    12.1678     3.7143 H       
 177 H177          11.5932    12.4711     1.2547 H       
 178 H178          12.8298    11.1960     1.1390 H       
 179 H179          11.2384     9.5641     2.1152 H       
 180 H180          10.0018    10.8391     2.2308 H       
 181 H181          10.0844    11.1423    -0.2288 H       
 182 H182          11.3210     9.8673    -0.3444 H       
 183 H183           9.7297     8.2354     0.6317 H       
 184 H184           8.4931     9.5104     0.7474 H       
 185 H185           8.5757     9.8136    -1.7123 H       
 186 H186           9.8123     8.5386    -1.8279 H       
 187 H187           8.2209     6.9067    -0.8517 H       
 188 H188           6.9843     8.1817    -0.7361 H       
 189 H189           8.3036     7.2099    -3.3114 H       
 190 H190           7.0670     8.4849    -3.1957 H       
@<TRIPOS>BOND
   1    1    2 2
   2    1    4 1
   3    1   14 am
   4    3    4 1
   5    3   89 1
   6    3   90 1
   7    4    5 1
   8    4   91 1
   9    5    6 1
  10    5   92 1
  11    5   93 1
  12    6    7 1
  13    6   94 1
  14    6   95 1
  15    7    8 1
  16    7   96 1
  17    7   97 1
  18    8    9 1
  19    8   98 1
  20    9   10 2
  21    9   11 1
  22   10   99 1
  23   11   72 am
  24   11  100 1
  25   12   13 2
  26   12   15 1
  27   12   23 am
  28   14   15 1
  29   14  101 1
  30   15   16 1
  31   15  102 1
  32   16   17 1
  33   16  103 1
  34   16  104 1
  35   17   18 1
  36   17  105 1
  37   17  106 1
  38   18   19 2
  39   18   20 1
  40   20  107 1
  41   21   22 2
  42   21   24 1
  43   21   32 am
  44   23   24 1
  45   23  108 1
  46   24   25 1
  47   24  109 1
  48   25   26 1
  49   25  110 1
  50   25  111 1
  51   26   27 1
  52   26  112 1
  53   26  113 1
  54   27   28 1
  55   27  114 1
  56   27  115 1
  57   28   29 1
  58   28  116 1
  59   28  117 1
  60   29  118 1
  61   29  119 1
  62   30   31 2
  63   30   33 1
  64   30   43 am
  65   32   33 1
  66   32  120 1
  67   33   34 1
  68   33  121 1
  69   34   35 1
  70   34  122 1
  71   34  123 1
  72   35   36 1
  73   35  124 1
  74   35  125 1
  75   36   37 1
  76   36  126 1
  77   36  127 1
  78   37   38 1
  79   37  128 1
  80   38   39 2
  81   38   40 1
  82   39  129 1
  83   40  130 1
  84   40  131 1
  85   41   42 2
  86   41   44 1
  87   41   54 am
  88   43   44 1
  89   43  132 1
  90   44   45 1
  91   44  133 1
  92   45   46 1
  93   45  134 1
  94   45  135 1
  95   46   47 1
  96   46  136 1
  97   46  137 1
  98   47   48 1
  99   47  138 1
 100   47  139 1
 101   48   49 1
 102   48  140 1
 103   49   50 2
 104   49   51 1
 105   50  141 1
 106   51  142 1
 107   51  143 1
 108   52   53 2
 109   52   55 1
 110   52   60 am
 111   54   55 1
 112   54  144 1
 113   55   56 1
 114   55  145 1
 115   56   57 1
 116   56  146 1
 117   56  147 1
 118   57  148 1
 119   58   59 2
 120   58   61 1
 121   58   65 am
 122   60   61 1
 123   60  149 1
 124   61   62 1
 125   61  150 1
 126   62  151 1
 127   62  152 1
 128   62  153 1
 129   63   64 2
 130   63   66 1
 131   63   71 1
 132   65   66 1
 133   65  154 1
 134   66   67 1
 135   66  155 1
 136   67   68 1
 137   67  156 1
 138   67  157 1
 139   68   69 2
 140   68   70 1
 141   70  158 1
 142   71  159 1
 143   72   73 2
 144   72   88 1
 145   74   75 1
 146   74  160 1
 147   74  161 1
 148   74  162 1
 149   75   76 1
 150   75  163 1
 151   75  164 1
 152   76   77 1
 153   76  165 1
 154   76  166 1
 155   77   78 1
 156   77  167 1
 157   77  168 1
 158   78   79 1
 159   78  169 1
 160   78  170 1
 161   79   80 1
 162   79  171 1
 163   79  172 1
 164   80   81 1
 165   80  173 1
 166   80  174 1
 167   81   82 1
 168   81  175 1
 169   81  176 1
 170   82   83 1
 171   82  177 1
 172   82  178 1
 173   83   84 1
 174   83  179 1
 175   83  180 1
 176   84   85 1
 177   84  181 1
 178   84  182 1
 179   85   86 1
 180   85  183 1
 181   85  184 1
 182   86   87 1
 183   86  185 1
 184   86  186 1
 185   87   88 1
 186   87  187 1
 187   87  188 1
 188   88  189 1
 189   88  190 1

#	End of record

