#	Name: ASD02408141
#	Creating user name:	WinNT
#	Creation time:	15. 06. 2019 20:21

#	Modifying user name:	WinNT
#	Modification time:	15. 06. 2019 20:21

#	Program:	/corina/corina34_cracker 3.40 0067  02.08.2006

@<TRIPOS>MOLECULE
ASD02408141
  51   55    0    0    0
SMALL
NO_CHARGES


@<TRIPOS>ATOM
   1 C1            -1.0516     1.7238     0.2320 C.ar    
   2 C2            -1.3009     0.3575     0.2211 C.ar    
   3 C3             0.2479     2.1722     0.0082 C.ar    
   4 C4             1.2659     1.2686    -0.2147 C.ar    
   5 C5             1.0063    -0.0897    -0.2179 C.ar    
   6 C6            -0.2822    -0.5432     0.0017 C.ar    
   7 C7             0.5427     3.6501     0.0089 C.3     
   8 C8             0.7793     4.1144     1.4229 C.2     
   9 N9             1.0607     5.4132     1.6433 N.am    
  10 N10            0.6993     3.2457     2.3940 N.2     
  11 C11            0.8993     3.6012     3.6695 C.2     
  12 C12            1.2021     4.9394     3.9705 C.2     
  13 C13            1.2777     5.8636     2.8969 C.2     
  14 N14            0.8088     2.6676     4.6726 N.pl3   
  15 C15            0.1700     3.0032     5.9524 C.3     
  16 O16            1.5370     7.0369     3.1016 O.2     
  17 C17           -0.9231     1.9702     6.2439 C.3     
  18 C18           -0.3204     0.5652     6.1872 C.3     
  19 C19            0.2445     0.2965     4.7910 C.3     
  20 C20            1.3437     1.3121     4.4842 C.3     
  21 O21            0.7253     0.4497     7.1602 O.3     
  22 C22            0.3565    -0.6145     8.0608 C.3     
  23 C23           -0.6584    -1.4400     7.2311 C.3     
  24 O24           -1.3396    -0.4036     6.4838 O.3     
  25 C25           -2.7845     0.1744     0.4760 C.3     
  26 C26           -3.3308     1.5995     0.2223 C.3     
  27 O27           -2.1873     2.4301     0.4861 O.3     
  28 C28            1.4227     5.3594     5.3216 C.1     
  29 N29            1.5977     5.6926     6.3935 N.1     
  30 H30            2.2710     1.6237    -0.3879 H       
  31 H31            1.8065    -0.7940    -0.3912 H       
  32 H32           -0.4893    -1.6032     0.0005 H       
  33 H33            1.4323     3.8434    -0.5906 H       
  34 H34           -0.3047     4.1898    -0.4138 H       
  35 H35            1.1081     6.0292     0.8955 H       
  36 H36            0.9140     2.9825     6.7487 H       
  37 H37           -0.2737     3.9968     5.8899 H       
  38 H38           -1.3370     2.1486     7.2363 H       
  39 H39           -1.7138     2.0571     5.4986 H       
  40 H40            0.6581    -0.7113     4.7537 H       
  41 H41           -0.5513     0.3911     4.0522 H       
  42 H42            1.6771     1.1895     3.4537 H       
  43 H43            2.1828     1.1586     5.1627 H       
  44 H44            1.2257    -1.2195     8.3187 H       
  45 H45           -0.1151    -0.2137     8.9581 H       
  46 H46           -0.1452    -2.1305     6.5618 H       
  47 H47           -1.3525    -1.9725     7.8814 H       
  48 H48           -3.2154    -0.5387    -0.2268 H       
  49 H49           -2.9677    -0.1355     1.5048 H       
  50 H50           -3.6577     1.7093    -0.8117 H       
  51 H51           -4.1429     1.8301     0.9118 H       
@<TRIPOS>BOND
   1    1    2 ar
   2    1    3 ar
   3    1   27 1
   4    2   25 1
   5    2    6 ar
   6    3    4 ar
   7    3    7 1
   8    4    5 ar
   9    4   30 1
  10    5    6 ar
  11    5   31 1
  12    6   32 1
  13    7    8 1
  14    7   33 1
  15    7   34 1
  16    8    9 1
  17    8   10 2
  18    9   13 am
  19    9   35 1
  20   10   11 1
  21   11   12 2
  22   11   14 1
  23   12   13 1
  24   12   28 1
  25   13   16 2
  26   14   15 1
  27   14   20 1
  28   15   17 1
  29   15   36 1
  30   15   37 1
  31   17   18 1
  32   17   38 1
  33   17   39 1
  34   18   19 1
  35   18   21 1
  36   18   24 1
  37   19   20 1
  38   19   40 1
  39   19   41 1
  40   20   42 1
  41   20   43 1
  42   21   22 1
  43   22   23 1
  44   22   44 1
  45   22   45 1
  46   23   24 1
  47   23   46 1
  48   23   47 1
  49   25   26 1
  50   25   48 1
  51   25   49 1
  52   26   27 1
  53   26   50 1
  54   26   51 1
  55   28   29 3

#	End of record

