#	Name: ASD01150033
#	Creating user name:	WinNT
#	Creation time:	15. 06. 2019 19:03

#	Modifying user name:	WinNT
#	Modification time:	15. 06. 2019 19:03

#	Program:	/corina/corina34_cracker 3.40 0067  02.08.2006

@<TRIPOS>MOLECULE
ASD01150033
  47   49    0    0    0
SMALL
NO_CHARGES


@<TRIPOS>ATOM
   1 C1            -0.0158     1.3138     0.0093 C.ar    
   2 N2             0.0021    -0.0041     0.0020 N.ar    
   3 C3            -1.1219    -0.7042     0.0090 C.ar    
   4 C4            -2.3393    -0.0282     0.0242 C.ar    
   5 C5            -2.3161     1.3789     0.0316 C.ar    
   6 N6            -1.1413     1.9993     0.0291 N.ar    
   7 C7            -3.6236    -0.7699     0.0320 C.ar    
   8 C8            -3.8505    -1.7855    -0.8952 C.ar    
   9 C9            -5.0472    -2.4726    -0.8829 C.ar    
  10 C10           -6.0208    -2.1548     0.0469 C.ar    
  11 C11           -5.8011    -1.1479     0.9695 C.ar    
  12 C12           -4.6059    -0.4579     0.9703 C.ar    
  13 C13           -7.3260    -2.9082     0.0545 C.3     
  14 F14           -7.2169    -4.0215     0.8947 F       
  15 F15           -8.3452    -2.0706     0.5202 F       
  16 F16           -7.6274    -3.3319    -1.2442 F       
  17 C17            1.2930     2.0608     0.0008 C.3     
  18 N18           -3.4950     2.1028     0.0467 N.pl3   
  19 C19           -3.4553     3.5672     0.0542 C.3     
  20 C20           -4.6956     4.0753    -0.5131 C.3     
  21 C21           -4.7126     5.6148    -0.6055 C.3     
  22 C22           -5.0502     6.1713     0.7512 C.3     
  23 C23           -3.7953     6.5201     1.5742 C.3     
  24 C24           -2.6870     5.4567     1.4533 C.3     
  25 C25           -3.2279     4.0534     1.5003 C.3     
  26 H26           -1.0948    -1.7838     0.0026 H       
  27 H27           -3.0913    -2.0340    -1.6220 H       
  28 H28           -5.2241    -3.2598    -1.6009 H       
  29 H29           -6.5647    -0.9039     1.6932 H       
  30 H30           -4.4354     0.3282     1.6911 H       
  31 H31            1.5987     2.2464    -1.0289 H       
  32 H32            1.1723     3.0111     0.5209 H       
  33 H33            2.0546     1.4652     0.5042 H       
  34 H34           -4.3479     1.6407     0.0524 H       
  35 H35           -2.6217     3.9005    -0.5640 H       
  36 H36           -4.8223     3.6603    -1.5130 H       
  37 H37           -5.5283     3.7498     0.1103 H       
  38 H38           -3.7311     5.9740    -0.9147 H       
  39 H39           -5.4653     5.9300    -1.3281 H       
  40 H40           -5.6499     7.0725     0.6235 H       
  41 H41           -5.6372     5.4340     1.2988 H       
  42 H42           -3.4035     7.4770     1.2292 H       
  43 H43           -4.0778     6.6158     2.6226 H       
  44 H44           -2.1615     5.6008     0.5093 H       
  45 H45           -1.9799     5.5897     2.2721 H       
  46 H46           -4.1731     4.0433     2.0429 H       
  47 H47           -2.5101     3.4008     1.9973 H       
@<TRIPOS>BOND
   1    1    2 ar
   2    1   17 1
   3    1    6 ar
   4    2    3 ar
   5    3    4 ar
   6    3   26 1
   7    4    5 ar
   8    4    7 1
   9    5    6 ar
  10    5   18 1
  11    7    8 ar
  12    7   12 ar
  13    8    9 ar
  14    8   27 1
  15    9   10 ar
  16    9   28 1
  17   10   11 ar
  18   10   13 1
  19   11   12 ar
  20   11   29 1
  21   12   30 1
  22   13   14 1
  23   13   15 1
  24   13   16 1
  25   17   31 1
  26   17   32 1
  27   17   33 1
  28   18   19 1
  29   18   34 1
  30   19   20 1
  31   19   25 1
  32   19   35 1
  33   20   21 1
  34   20   36 1
  35   20   37 1
  36   21   22 1
  37   21   38 1
  38   21   39 1
  39   22   23 1
  40   22   40 1
  41   22   41 1
  42   23   24 1
  43   23   42 1
  44   23   43 1
  45   24   25 1
  46   24   44 1
  47   24   45 1
  48   25   46 1
  49   25   47 1

#	End of record

