#	Name: ASD01001211
#	Creating user name:	WinNT
#	Creation time:	15. 06. 2019 18:55

#	Modifying user name:	WinNT
#	Modification time:	15. 06. 2019 18:55

#	Program:	/corina/corina34_cracker 3.40 0067  02.08.2006

@<TRIPOS>MOLECULE
ASD01001211
  57   60    0    0    0
SMALL
NO_CHARGES


@<TRIPOS>ATOM
   1 C1            -0.0184     1.5078     0.0103 C.3     
   2 C2             0.0021    -0.0041     0.0020 C.ar    
   3 C3            -0.7491     1.9985    -1.2382 C.3     
   4 C4            -0.2419    -0.7302    -1.1490 C.ar    
   5 C5             0.2767    -0.6591     1.1917 C.ar    
   6 C6            -0.1694     1.2729    -2.4534 C.3     
   7 C7            -0.6119     3.5081    -1.3949 C.3     
   8 C8            -0.1969    -2.1269    -1.0975 C.ar    
   9 N9            -0.5473    -0.1405    -2.3772 N.3     
  10 C10           -0.7254     1.8779    -3.7167 C.ar    
  11 C11            0.8682     3.9001    -1.3654 C.3     
  12 C12            0.0796    -2.7736     0.0895 C.ar    
  13 C13            0.3157    -2.0394     1.2383 C.ar    
  14 C14            1.4835     3.3882    -0.0588 C.3     
  15 C15            2.9696     3.7494    -0.0166 C.3     
  16 N16            3.5577     3.2579     1.2366 N.3     
  17 O17            1.3348     1.9700    -0.0001 O.3     
  18 C18            0.0276     2.7855    -4.4380 C.ar    
  19 C19           -0.4824     3.3405    -5.5968 C.ar    
  20 C20           -1.7452     2.9875    -6.0345 C.ar    
  21 C21           -2.4978     2.0793    -5.3138 C.ar    
  22 C22           -1.9861     1.5210    -4.1573 C.ar    
  23 Br23           0.6890    -2.9228     2.8681 Br      
  24 C24            4.9873     3.5874     1.3121 C.3     
  25 F25           -0.4261    -2.8476    -2.2171 F       
  26 C26            5.5632     3.0605     2.6280 C.3     
  27 N27            6.9889     3.3892     2.7033 N.am    
  28 C28            7.7092     3.0215     3.7815 C.2     
  29 C29            9.1757     3.3595     3.8590 C.3     
  30 O30            7.1771     2.4185     4.6894 O.2     
  31 H31           -0.5214     1.8636     0.9095 H       
  32 H32           -1.8057     1.7446    -1.1542 H       
  33 H33            0.4619    -0.0867     2.0887 H       
  34 H34            0.9170     1.3621    -2.4491 H       
  35 H35           -1.0491     3.8150    -2.3450 H       
  36 H36           -1.1350     4.0061    -0.5786 H       
  37 H37           -0.1445    -0.6641    -3.1398 H       
  38 H38            1.3832     3.4493    -2.2137 H       
  39 H39            0.9603     4.9852    -1.4127 H       
  40 H40            0.1117    -3.8527     0.1220 H       
  41 H41            0.9728     3.8454     0.7887 H       
  42 H42            3.4797     3.2887    -0.8626 H       
  43 H43            3.0820     4.8323    -0.0705 H       
  44 H44            3.0603     3.6204     2.0361 H       
  45 H45            1.0142     3.0613    -4.0960 H       
  46 H46            0.1056     4.0501    -6.1599 H       
  47 H47           -2.1439     3.4217    -6.9395 H       
  48 H48           -3.4845     1.8038    -5.6556 H       
  49 H49           -2.5741     0.8114    -3.5942 H       
  50 H50            5.5113     3.1256     0.4753 H       
  51 H51            5.1136     4.6691     1.2675 H       
  52 H52            5.0392     3.5224     3.4647 H       
  53 H53            5.4369     1.9788     2.6726 H       
  54 H54            7.4145     3.8714     1.9772 H       
  55 H55            9.2997     4.3322     4.3350 H       
  56 H56            9.6933     2.5998     4.4447 H       
  57 H57            9.5949     3.3911     2.8534 H       
@<TRIPOS>BOND
   1    1    2 1
   2    1   17 1
   3    1    3 1
   4    1   31 1
   5    2    4 ar
   6    2    5 ar
   7    3    7 1
   8    3    6 1
   9    3   32 1
  10    4    8 ar
  11    4    9 1
  12    5   13 ar
  13    5   33 1
  14    6    9 1
  15    6   10 1
  16    6   34 1
  17    7   11 1
  18    7   35 1
  19    7   36 1
  20    8   12 ar
  21    8   25 1
  22    9   37 1
  23   10   18 ar
  24   10   22 ar
  25   11   14 1
  26   11   38 1
  27   11   39 1
  28   12   13 ar
  29   12   40 1
  30   13   23 1
  31   14   15 1
  32   14   17 1
  33   14   41 1
  34   15   16 1
  35   15   42 1
  36   15   43 1
  37   16   24 1
  38   16   44 1
  39   18   19 ar
  40   18   45 1
  41   19   20 ar
  42   19   46 1
  43   20   21 ar
  44   20   47 1
  45   21   22 ar
  46   21   48 1
  47   22   49 1
  48   24   26 1
  49   24   50 1
  50   24   51 1
  51   26   27 1
  52   26   52 1
  53   26   53 1
  54   27   28 am
  55   27   54 1
  56   28   29 1
  57   28   30 2
  58   29   55 1
  59   29   56 1
  60   29   57 1

#	End of record

