#	Name: ASD01150699
#	Creating user name:	WinNT
#	Creation time:	15. 06. 2019 19:04

#	Modifying user name:	WinNT
#	Modification time:	15. 06. 2019 19:04

#	Program:	/corina/corina34_cracker 3.40 0067  02.08.2006

@<TRIPOS>MOLECULE
ASD01150699
  43   47    0    0    0
SMALL
NO_CHARGES


@<TRIPOS>ATOM
   1 C1            -0.0813     1.3455    -0.0333 C.2     
   2 O2            -0.3223     1.0773     1.1251 O.2     
   3 C3             3.2673     3.7256    -0.9983 C.ar    
   4 C4             3.4508     2.3463    -0.9350 C.ar    
   5 C5             2.3412     1.5227    -0.6113 C.ar    
   6 C6             1.1005     2.1447    -0.3700 C.ar    
   7 C7             1.0154     3.5413    -0.4580 C.ar    
   8 N8             2.0645     4.2640    -0.7583 N.ar    
   9 C9             4.8296     1.9438    -1.2285 C.2     
  10 C10            5.6399     2.9574    -1.4966 C.2     
  11 S11            4.7880     4.4985    -1.4207 S.3     
  12 C12            7.0498     2.4514    -1.7903 C.3     
  13 C13            6.8747     0.9508    -2.0970 C.3     
  14 C14            5.5929     0.6217    -1.3068 C.3     
  15 C15           -0.3051     4.2213    -0.2031 C.3     
  16 C16            2.4834     0.0533    -0.5297 C.ar    
  17 C17            2.3045    -0.6014     0.6904 C.ar    
  18 C18            2.4387    -1.9731     0.7602 C.ar    
  19 C19            2.7507    -2.7001    -0.3783 C.ar    
  20 C20            2.9290    -2.0554    -1.5905 C.ar    
  21 C21            2.7913    -0.6854    -1.6734 C.ar    
  22 Cl22           2.9191    -4.4253    -0.2834 Cl      
  23 Cl23           2.2168    -2.7896     2.2760 Cl      
  24 C24           -0.9935     0.8517    -1.1265 C.3     
  25 C25           -1.8389    -0.3896    -0.8343 C.3     
  26 C26           -2.5011     0.9880    -0.9039 C.3     
  27 H27            7.4663     2.9691    -2.6544 H       
  28 H28            7.6910     2.5883    -0.9196 H       
  29 H29            6.7294     0.7844    -3.1644 H       
  30 H30            7.7219     0.3745    -1.7251 H       
  31 H31            5.8441     0.2690    -0.3065 H       
  32 H32            5.0025    -0.1262    -1.8363 H       
  33 H33           -0.4242     4.3943     0.8665 H       
  34 H34           -0.3305     5.1749    -0.7304 H       
  35 H35           -1.1157     3.5865    -0.5610 H       
  36 H36            2.0621    -0.0355     1.5778 H       
  37 H37            3.1724    -2.6269    -2.4740 H       
  38 H38            2.9260    -0.1846    -2.6208 H       
  39 H39           -0.6210     0.9791    -2.1429 H       
  40 H40           -2.0229    -1.0786    -1.6586 H       
  41 H41           -1.7353    -0.8491     0.1486 H       
  42 H42           -2.8331     1.4347     0.0332 H       
  43 H43           -3.1207     1.2052    -1.7740 H       
@<TRIPOS>BOND
   1    1    2 2
   2    1    6 1
   3    1   24 1
   4    3    4 ar
   5    3    8 ar
   6    3   11 1
   7    4    5 ar
   8    4    9 1
   9    5    6 ar
  10    5   16 1
  11    6    7 ar
  12    7    8 ar
  13    7   15 1
  14    9   10 2
  15    9   14 1
  16   10   11 1
  17   10   12 1
  18   12   13 1
  19   12   27 1
  20   12   28 1
  21   13   14 1
  22   13   29 1
  23   13   30 1
  24   14   31 1
  25   14   32 1
  26   15   33 1
  27   15   34 1
  28   15   35 1
  29   16   17 ar
  30   16   21 ar
  31   17   18 ar
  32   17   36 1
  33   18   19 ar
  34   18   23 1
  35   19   20 ar
  36   19   22 1
  37   20   21 ar
  38   20   37 1
  39   21   38 1
  40   24   25 1
  41   24   26 1
  42   24   39 1
  43   25   26 1
  44   25   40 1
  45   25   41 1
  46   26   42 1
  47   26   43 1

#	End of record

