#	Name: ASD01810167
#	Creating user name:	WinNT
#	Creation time:	15. 06. 2019 19:23

#	Modifying user name:	WinNT
#	Modification time:	15. 06. 2019 19:23

#	Program:	/corina/corina34_cracker 3.40 0067  02.08.2006

@<TRIPOS>MOLECULE
ASD01810167
  38   40    0    0    0
SMALL
NO_CHARGES


@<TRIPOS>ATOM
   1 C1             0.1037     1.4767     0.3848 C.ar    
   2 C2             0.0846     0.0904     0.3766 C.ar    
   3 C3             1.2532    -0.6304     0.2369 C.ar    
   4 C4             2.4703     0.0349     0.1017 C.ar    
   5 C5             2.4881     1.4401     0.1097 C.ar    
   6 C6             1.2975     2.1572     0.2524 C.ar    
   7 N7             3.6447    -0.6745    -0.0375 N.pl3   
   8 C8             4.8383    -0.0824    -0.1696 C.2     
   9 C9             4.9815     1.2905    -0.1757 C.2     
  10 C10            3.7815     2.1314    -0.0341 C.2     
  11 O11            3.8550     3.3478    -0.0339 O.2     
  12 C12            6.3096     1.9024    -0.3220 C.2     
  13 O13            6.4366     3.2445    -0.3264 O.3     
  14 O14            7.2937     1.1983    -0.4390 O.2     
  15 C15            3.5837    -2.1382    -0.0406 C.3     
  16 C16            3.4403    -2.6321    -1.4571 C.ar    
  17 C17            4.5600    -2.7766    -2.2549 C.ar    
  18 C18            4.4317    -3.2291    -3.5553 C.ar    
  19 C19            3.1838    -3.5379    -4.0603 C.ar    
  20 C20            2.0584    -3.3941    -3.2616 C.ar    
  21 C21            2.1904    -2.9454    -1.9557 C.ar    
  22 F22            1.2173    -1.9809     0.2317 F       
  23 O23            0.8294    -3.6969    -3.7563 O.3     
  24 C24            0.7695    -4.1579    -5.1076 C.3     
  25 F25            1.3143     3.5081     0.2597 F       
  26 H26           -0.8198     2.0266     0.4909 H       
  27 H27           -0.8553    -0.4312     0.4809 H       
  28 H28            5.7184    -0.6995    -0.2746 H       
  29 H29            7.3302     3.6006    -0.4253 H       
  30 H30            4.4987    -2.5409     0.3937 H       
  31 H31            2.7270    -2.4674     0.5474 H       
  32 H32            5.5366    -2.5353    -1.8619 H       
  33 H33            5.3080    -3.3408    -4.1766 H       
  34 H34            3.0840    -3.8906    -5.0762 H       
  35 H35            1.3159    -2.8327    -1.3319 H       
  36 H36           -0.2668    -4.3631    -5.3759 H       
  37 H37            1.1718    -3.3922    -5.7709 H       
  38 H38            1.3580    -5.0701    -5.2066 H       
@<TRIPOS>BOND
   1    1    2 ar
   2    1    6 ar
   3    1   26 1
   4    2    3 ar
   5    2   27 1
   6    3    4 ar
   7    3   22 1
   8    4    5 ar
   9    4    7 1
  10    5    6 ar
  11    5   10 1
  12    6   25 1
  13    7    8 1
  14    7   15 1
  15    8    9 2
  16    8   28 1
  17    9   10 1
  18    9   12 1
  19   10   11 2
  20   12   13 1
  21   12   14 2
  22   13   29 1
  23   15   16 1
  24   15   30 1
  25   15   31 1
  26   16   17 ar
  27   16   21 ar
  28   17   18 ar
  29   17   32 1
  30   18   19 ar
  31   18   33 1
  32   19   20 ar
  33   19   34 1
  34   20   21 ar
  35   20   23 1
  36   21   35 1
  37   23   24 1
  38   24   36 1
  39   24   37 1
  40   24   38 1

#	End of record

