#	Name: ASD00560002
#	Creating user name:	WinNT
#	Creation time:	15. 06. 2019 18:36

#	Modifying user name:	WinNT
#	Modification time:	15. 06. 2019 18:36

#	Program:	/corina/corina34_cracker 3.40 0067  02.08.2006

@<TRIPOS>MOLECULE
ASD00560002
  46   50    0    0    0
SMALL
NO_CHARGES


@<TRIPOS>ATOM
   1 C1            -0.0157     1.3855     0.0980 C.2     
   2 C2             0.0003    -0.0125     0.0916 C.2     
   3 N3            -1.3124    -0.4120     0.0719 N.pl3   
   4 C4            -2.0861     0.7180     0.0666 C.2     
   5 N5            -1.3166     1.7770     0.0875 N.2     
   6 C6             1.2168     2.0765     0.1180 C.2     
   7 N7             2.3584     1.3535     0.1302 N.am    
   8 C8             2.3101    -0.0086     0.1227 C.2     
   9 N9             1.1701    -0.6624     0.1045 N.2     
  10 O10            1.2495     3.2957     0.1237 O.2     
  11 N11            3.4859    -0.7180     0.1345 N.pl3   
  12 S12           -3.8477     0.7427     0.0423 S.3     
  13 C13           -1.7974    -1.7943     0.0584 C.3     
  14 O14           -2.9010    -1.9360     0.9782 O.3     
  15 C15           -4.0702    -2.2272     0.2328 C.3     
  16 C16           -3.5636    -3.0022    -1.0126 C.3     
  17 C17           -2.3241    -2.1547    -1.3567 C.3     
  18 C18           -5.1513    -3.0335     0.9218 C.3     
  19 O19           -4.6121    -2.9186    -1.9843 O.3     
  20 P20           -6.0740    -3.4870    -1.5353 P.3     
  21 O21           -6.2835    -3.0719     0.0201 O.3     
  22 O22           -7.2254    -2.8206    -2.4422 O.3     
  23 O23           -6.1081    -4.9600    -1.6744 O.2     
  24 O24           -2.6913    -0.9796    -2.0823 O.3     
  25 C25           -4.1317     2.4740     0.2058 C.ar    
  26 C26           -4.1502     3.2858    -0.9216 C.ar    
  27 C27           -4.3735     4.6422    -0.7904 C.ar    
  28 C28           -4.5787     5.1931     0.4625 C.ar    
  29 C29           -4.5607     4.3869     1.5873 C.ar    
  30 C30           -4.3432     3.0291     1.4618 C.ar    
  31 Cl31          -4.8585     6.8988     0.6236 Cl      
  32 H32            3.2162     1.8060     0.1440 H       
  33 H33            4.3350    -0.2492     0.1479 H       
  34 H34            3.4673    -1.6878     0.1293 H       
  35 H35           -0.9915    -2.4722     0.3395 H       
  36 H36           -4.5102    -1.2880    -0.1024 H       
  37 H37           -3.2999    -4.0335    -0.7777 H       
  38 H38           -1.5904    -2.7410    -1.9099 H       
  39 H39           -4.7950    -4.0452     1.1159 H       
  40 H40           -5.4361    -2.5519     1.8573 H       
  41 H41           -8.1192    -3.1182    -2.2242 H       
  42 H42           -1.9435    -0.4149    -2.3208 H       
  43 H43           -3.9898     2.8565    -1.8995 H       
  44 H44           -4.3877     5.2738    -1.6664 H       
  45 H45           -4.7211     4.8196     2.5637 H       
  46 H46           -4.3297     2.4004     2.3398 H       
@<TRIPOS>BOND
   1    1    2 2
   2    1    6 1
   3    1    5 1
   4    2    3 1
   5    2    9 1
   6    3    4 1
   7    3   13 1
   8    4    5 2
   9    4   12 1
  10    6    7 am
  11    6   10 2
  12    7    8 1
  13    7   32 1
  14    8    9 2
  15    8   11 1
  16   11   33 1
  17   11   34 1
  18   12   25 1
  19   13   14 1
  20   13   17 1
  21   13   35 1
  22   14   15 1
  23   15   16 1
  24   15   18 1
  25   15   36 1
  26   16   17 1
  27   16   19 1
  28   16   37 1
  29   17   24 1
  30   17   38 1
  31   18   21 1
  32   18   39 1
  33   18   40 1
  34   19   20 1
  35   20   21 1
  36   20   22 1
  37   20   23 2
  38   22   41 1
  39   24   42 1
  40   25   26 ar
  41   25   30 ar
  42   26   27 ar
  43   26   43 1
  44   27   28 ar
  45   27   44 1
  46   28   29 ar
  47   28   31 1
  48   29   30 ar
  49   29   45 1
  50   30   46 1

#	End of record

