#	Name: ASD01883520
#	Creating user name:	WinNT
#	Creation time:	15. 06. 2019 19:46

#	Modifying user name:	WinNT
#	Modification time:	15. 06. 2019 19:46

#	Program:	/corina/corina34_cracker 3.40 0067  02.08.2006

@<TRIPOS>MOLECULE
ASD01883520
  47   49    0    0    0
SMALL
NO_CHARGES


@<TRIPOS>ATOM
   1 N1            -0.0161     1.3416     0.0072 N.am    
   2 C2             0.0012    -0.0014     0.0948 C.2     
   3 C3            -1.2157    -0.7234     0.1068 C.2     
   4 C4            -2.4241    -0.0107     0.0261 C.2     
   5 C5            -2.3769     1.3928    -0.0635 C.2     
   6 C6            -1.1855     2.0296    -0.0656 C.2     
   7 O7             1.0641    -0.5951     0.1632 O.2     
   8 C8            -1.2157    -2.1525     0.1990 C.1     
   9 N9            -1.2157    -3.2861     0.2721 N.1     
  10 C10            1.2511     2.0767    -0.0037 C.3     
  11 C11            1.7339     2.2394    -1.4464 C.3     
  12 C12            3.0573     3.0070    -1.4578 C.3     
  13 C13            4.1358     2.1747    -0.7615 C.3     
  14 C14            3.4770     3.2785    -2.9039 C.3     
  15 N15           -3.6318    -0.6735     0.0341 N.pl3   
  16 C16           -3.9929    -1.5811    -1.0635 C.3     
  17 C17           -5.4480    -1.2897    -1.4531 C.3     
  18 C18           -6.3516    -1.6103    -0.2626 C.3     
  19 C19           -5.8478    -0.9264     0.9809 C.ar    
  20 C20           -4.5330    -0.4977     1.0910 C.ar    
  21 C21           -6.7208    -0.7298     2.0379 C.ar    
  22 C22           -6.2883    -0.1075     3.1928 C.ar    
  23 C23           -4.9785     0.3234     3.3012 C.ar    
  24 C24           -4.0999     0.1268     2.2558 C.ar    
  25 H25           -3.2931     1.9611    -0.1266 H       
  26 H26           -1.1618     3.1071    -0.1348 H       
  27 H27            1.1046     3.0599     0.4435 H       
  28 H28            1.9964     1.5245     0.5688 H       
  29 H29            1.8803     1.2561    -1.8935 H       
  30 H30            0.9886     2.7915    -2.0189 H       
  31 H31            2.9328     3.9536    -0.9318 H       
  32 H32            5.0786     2.7216    -0.7696 H       
  33 H33            3.8368     1.9813     0.2687 H       
  34 H34            4.2603     1.2281    -1.2874 H       
  35 H35            2.7086     3.8715    -3.4000 H       
  36 H36            4.4198     3.8254    -2.9120 H       
  37 H37            3.6014     2.3319    -3.4298 H       
  38 H38           -3.3395    -1.4052    -1.9181 H       
  39 H39           -3.8992    -2.6156    -0.7330 H       
  40 H40           -5.5516    -0.2373    -1.7173 H       
  41 H41           -5.7299    -1.9110    -2.3032 H       
  42 H42           -7.3639    -1.2674    -0.4767 H       
  43 H43           -6.3642    -2.6881    -0.1005 H       
  44 H44           -7.7447    -1.0642     1.9588 H       
  45 H45           -6.9746     0.0431     4.0130 H       
  46 H46           -4.6421     0.8092     4.2052 H       
  47 H47           -3.0770     0.4629     2.3399 H       
@<TRIPOS>BOND
   1    1    2 am
   2    1   10 1
   3    1    6 1
   4    2    3 1
   5    2    7 2
   6    3    4 2
   7    3    8 1
   8    4    5 1
   9    4   15 1
  10    5    6 2
  11    5   25 1
  12    6   26 1
  13    8    9 3
  14   10   11 1
  15   10   27 1
  16   10   28 1
  17   11   12 1
  18   11   29 1
  19   11   30 1
  20   12   13 1
  21   12   14 1
  22   12   31 1
  23   13   32 1
  24   13   33 1
  25   13   34 1
  26   14   35 1
  27   14   36 1
  28   14   37 1
  29   15   16 1
  30   15   20 1
  31   16   17 1
  32   16   38 1
  33   16   39 1
  34   17   18 1
  35   17   40 1
  36   17   41 1
  37   18   19 1
  38   18   42 1
  39   18   43 1
  40   19   20 ar
  41   19   21 ar
  42   20   24 ar
  43   21   22 ar
  44   21   44 1
  45   22   23 ar
  46   22   45 1
  47   23   24 ar
  48   23   46 1
  49   24   47 1

#	End of record

