#	Name: ASD01916934
#	Creating user name:	WinNT
#	Creation time:	15. 06. 2019 20:08

#	Modifying user name:	WinNT
#	Modification time:	15. 06. 2019 20:08

#	Program:	/corina/corina34_cracker 3.40 0067  02.08.2006

@<TRIPOS>MOLECULE
ASD01916934
  62   67    0    0    0
SMALL
NO_CHARGES


@<TRIPOS>ATOM
   1 C1            -0.2011     1.3340     1.0320 C.ar    
   2 C2            -0.2502     0.0464     1.5411 C.ar    
   3 C3             0.9203    -0.6181     1.8694 C.ar    
   4 C4             2.1406     0.0005     1.6904 C.ar    
   5 C5             2.1945     1.2954     1.1787 C.ar    
   6 C6             1.0149     1.9601     0.8499 C.ar    
   7 C7             3.5047     1.9650     0.9849 C.2     
   8 N8             4.6991     1.4307     1.2628 N.2     
   9 N9             3.6799     3.1780     0.5068 N.2     
  10 N10            5.0639     3.4151     0.4914 N.pl3   
  11 C11            5.6497     2.2939     0.9724 C.2     
  12 C12            7.1033     2.0764     1.1421 C.ar    
  13 C13            5.7403     4.6336     0.0396 C.3     
  14 C14            5.8188     5.6165     1.1792 C.2     
  15 O15            5.3555     5.3277     2.2621 O.2     
  16 N16            6.4040     6.8166     0.9949 N.am    
  17 C17            6.4913     7.7905     2.0935 C.3     
  18 C18            7.9454     8.2586     2.2147 C.3     
  19 N19            8.4084     8.7505     0.9103 N.3     
  20 C20            8.4073     7.6788    -0.0944 C.3     
  21 C21            6.9776     7.1846    -0.3085 C.3     
  22 C22            9.6607     9.3310     1.0150 C.ar    
  23 N23           10.5627     8.8180     1.8298 N.ar    
  24 C24            7.9704     3.1670     1.2151 C.ar    
  25 C25            9.3245     2.9590     1.3732 C.ar    
  26 C26            9.8245     1.6692     1.4591 C.ar    
  27 C27            8.9674     0.5825     1.3867 C.ar    
  28 C28            7.6109     0.7801     1.2353 C.ar    
  29 F29           11.1518     1.4706     1.6136 F       
  30 F30           -1.4430    -0.5628     1.7183 F       
  31 C31           11.7774     9.3335     1.9685 C.ar    
  32 C32           12.1773    10.4334     1.2751 C.ar    
  33 C33           11.2717    11.0413     0.3832 C.ar    
  34 C34            9.9806    10.4721     0.2454 C.ar    
  35 C35           11.6104    12.1760    -0.3662 C.ar    
  36 C36           10.6910    12.7193    -1.2134 C.ar    
  37 C37            9.4212    12.1634    -1.3449 C.ar    
  38 C38            9.0614    11.0566    -0.6347 C.ar    
  39 H39           -1.1157     1.8468     0.7732 H       
  40 H40            0.8776    -1.6216     2.2663 H       
  41 H41            3.0526    -0.5180     1.9469 H       
  42 H42            1.0523     2.9637     0.4526 H       
  43 H43            6.7470     4.3867    -0.2973 H       
  44 H44            5.1799     5.0761    -0.7840 H       
  45 H45            5.8486     8.6441     1.8781 H       
  46 H46            6.1793     7.3198     3.0258 H       
  47 H47            8.0092     9.0611     2.9496 H       
  48 H48            8.5709     7.4241     2.5316 H       
  49 H49            8.8061     8.0608    -1.0342 H       
  50 H50            9.0264     6.8524     0.2547 H       
  51 H51            6.9853     6.3149    -0.9656 H       
  52 H52            6.3786     7.9786    -0.7544 H       
  53 H53            7.5818     4.1724     1.1475 H       
  54 H54            9.9965     3.8025     1.4298 H       
  55 H55            9.3619    -0.4206     1.4538 H       
  56 H56            6.9437    -0.0674     1.1793 H       
  57 H57           12.4696     8.8659     2.6530 H       
  58 H58           13.1717    10.8339     1.4062 H       
  59 H59           12.5919    12.6168    -0.2729 H       
  60 H60           10.9513    13.5940    -1.7910 H       
  61 H61            8.7116    12.6135    -2.0233 H       
  62 H62            8.0729    10.6362    -0.7467 H       
@<TRIPOS>BOND
   1    1    2 ar
   2    1    6 ar
   3    1   39 1
   4    2    3 ar
   5    2   30 1
   6    3    4 ar
   7    3   40 1
   8    4    5 ar
   9    4   41 1
  10    5    6 ar
  11    5    7 1
  12    6   42 1
  13    7    8 1
  14    7    9 2
  15    8   11 2
  16    9   10 1
  17   10   11 1
  18   10   13 1
  19   11   12 1
  20   12   24 ar
  21   12   28 ar
  22   13   14 1
  23   13   43 1
  24   13   44 1
  25   14   15 2
  26   14   16 am
  27   16   17 1
  28   16   21 1
  29   17   18 1
  30   17   45 1
  31   17   46 1
  32   18   19 1
  33   18   47 1
  34   18   48 1
  35   19   20 1
  36   19   22 1
  37   20   21 1
  38   20   49 1
  39   20   50 1
  40   21   51 1
  41   21   52 1
  42   22   23 ar
  43   22   34 ar
  44   23   31 ar
  45   24   25 ar
  46   24   53 1
  47   25   26 ar
  48   25   54 1
  49   26   27 ar
  50   26   29 1
  51   27   28 ar
  52   27   55 1
  53   28   56 1
  54   31   32 ar
  55   31   57 1
  56   32   33 ar
  57   32   58 1
  58   33   34 ar
  59   33   35 ar
  60   34   38 ar
  61   35   36 ar
  62   35   59 1
  63   36   37 ar
  64   36   60 1
  65   37   38 ar
  66   37   61 1
  67   38   62 1

#	End of record

