#	Name: ASD01816641
#	Creating user name:	WinNT
#	Creation time:	15. 06. 2019 19:35

#	Modifying user name:	WinNT
#	Modification time:	15. 06. 2019 19:35

#	Program:	/corina/corina34_cracker 3.40 0067  02.08.2006

@<TRIPOS>MOLECULE
ASD01816641
  43   47    0    0    0
SMALL
NO_CHARGES


@<TRIPOS>ATOM
   1 C1            -0.0167     1.3813     0.0096 C.ar    
   2 C2             0.0021    -0.0041     0.0020 C.ar    
   3 C3             1.1984    -0.6909    -0.0127 C.ar    
   4 C4             2.4015     0.0059    -0.0200 C.ar    
   5 C5             2.3790     1.4106    -0.0127 C.ar    
   6 C6             1.1663     2.0916     0.0022 C.ar    
   7 N7             3.6053    -0.6772    -0.0332 N.pl3   
   8 C8             4.7970    -0.0586    -0.0408 C.2     
   9 C9             4.9000     1.3103    -0.0358 C.2     
  10 C10            3.6670     2.1301    -0.0207 C.2     
  11 C11            5.9971     2.2729    -0.0411 C.2     
  12 N12            5.4246     3.4960    -0.0310 N.am    
  13 N13            4.0323     3.3799    -0.0187 N.2     
  14 O14            7.1914     2.0229    -0.0521 O.2     
  15 C15            6.1263     4.7079    -0.0321 C.ar    
  16 C16            3.5779    -2.1419    -0.0388 C.3     
  17 C17            3.5561    -2.6386    -1.4614 C.ar    
  18 C18            4.7434    -2.8885    -2.1241 C.ar    
  19 C19            4.7245    -3.3444    -3.4285 C.ar    
  20 C20            3.5160    -3.5508    -4.0718 C.ar    
  21 C21            2.3275    -3.3001    -3.4072 C.ar    
  22 C22            2.3487    -2.8493    -2.1010 C.ar    
  23 F23            3.4964    -3.9960    -5.3472 F       
  24 C24            5.8933     5.6613     0.9580 C.ar    
  25 C25            7.0686     4.9755    -1.0159 C.ar    
  26 N26            7.7318     6.1147    -1.0198 N.ar    
  27 C27            7.5315     7.0394    -0.1007 C.ar    
  28 C28            6.6135     6.8454     0.9140 C.ar    
  29 Cl29           4.7300     5.3735     2.2141 Cl      
  30 H30           -0.9602     1.9068     0.0170 H       
  31 H31           -0.9289    -0.5515     0.0080 H       
  32 H32            1.2004    -1.7709    -0.0181 H       
  33 H33            1.1506     3.1715     0.0081 H       
  34 H34            5.6983    -0.6536    -0.0507 H       
  35 H35            4.4654    -2.5239     0.4658 H       
  36 H36            2.6859    -2.4906     0.4815 H       
  37 H37            5.6859    -2.7271    -1.6222 H       
  38 H38            5.6522    -3.5393    -3.9461 H       
  39 H39            1.3842    -3.4607    -3.9080 H       
  40 H40            1.4218    -2.6537    -1.5823 H       
  41 H41            7.2606     4.2427    -1.7856 H       
  42 H42            8.0956     7.9595    -0.1394 H       
  43 H43            6.4566     7.6084     1.6620 H       
@<TRIPOS>BOND
   1    1    2 ar
   2    1    6 ar
   3    1   30 1
   4    2    3 ar
   5    2   31 1
   6    3    4 ar
   7    3   32 1
   8    4    5 ar
   9    4    7 1
  10    5    6 ar
  11    5   10 1
  12    6   33 1
  13    7    8 1
  14    7   16 1
  15    8    9 2
  16    8   34 1
  17    9   10 1
  18    9   11 1
  19   10   13 2
  20   11   12 am
  21   11   14 2
  22   12   13 1
  23   12   15 1
  24   15   24 ar
  25   15   25 ar
  26   16   17 1
  27   16   35 1
  28   16   36 1
  29   17   18 ar
  30   17   22 ar
  31   18   19 ar
  32   18   37 1
  33   19   20 ar
  34   19   38 1
  35   20   21 ar
  36   20   23 1
  37   21   22 ar
  38   21   39 1
  39   22   40 1
  40   24   29 1
  41   24   28 ar
  42   25   26 ar
  43   25   41 1
  44   26   27 ar
  45   27   28 ar
  46   27   42 1
  47   28   43 1

#	End of record

