#	Name: ASD01418018
#	Creating user name:	WinNT
#	Creation time:	15. 06. 2019 19:20

#	Modifying user name:	WinNT
#	Modification time:	15. 06. 2019 19:20

#	Program:	/corina/corina34_cracker 3.40 0067  02.08.2006

@<TRIPOS>MOLECULE
ASD01418018
  38   40    0    0    0
SMALL
NO_CHARGES


@<TRIPOS>ATOM
   1 C1            -0.0834     1.6288    -0.1616 C.ar    
   2 C2            -0.0009     0.2512    -0.2401 C.ar    
   3 C3             1.2334    -0.3626    -0.3431 C.ar    
   4 C4             2.3853     0.4013    -0.3681 C.ar    
   5 C5             2.3027     1.7790    -0.2906 C.ar    
   6 C6             1.0685     2.3927    -0.1861 C.ar    
   7 S7            -1.6571     2.4115    -0.0377 S.o2    
   8 O8            -1.4854     3.7366    -0.5212 O.2     
   9 O9            -2.6020     1.5013    -0.5835 O.2     
  10 N10           -2.0130     2.5444     1.5742 N.am    
  11 S11           -1.4669     3.6077     4.1208 S.3     
  12 C12           -1.2438     3.3408     2.3826 C.2     
  13 N13           -0.2021     4.0501     2.0169 N.2     
  14 C14            0.4515     4.7755     2.8987 C.2     
  15 C15           -0.0821     4.7099     4.2657 C.2     
  16 O16            1.4259     5.4504     2.6038 O.2     
  17 C17            0.3771     5.3448     5.3814 C.2     
  18 O18            2.4775     6.0624     4.3130 O.3     
  19 C19            1.6027     6.0477     5.3406 C.2     
  20 C20            2.1190     6.8426     6.3450 C.2     
  21 C21            3.3447     7.3357     5.8732 C.2     
  22 C22            3.5255     6.8358     4.6304 C.2     
  23 C23            4.7146     7.1038     3.7443 C.3     
  24 C24            3.7310    -0.2678    -0.4794 C.3     
  25 H25           -0.9008    -0.3457    -0.2205 H       
  26 H26            1.2979    -1.4390    -0.4036 H       
  27 H27            3.2026     2.3759    -0.3097 H       
  28 H28            1.0040     3.4691    -0.1252 H       
  29 H29           -2.7656     2.0587     1.9463 H       
  30 H30           -0.1956     5.3107     6.2964 H       
  31 H31            1.6677     7.0452     7.3050 H       
  32 H32            4.0181     7.9925     6.4038 H       
  33 H33            4.5925     6.5711     2.8012 H       
  34 H34            4.7892     8.1738     3.5501 H       
  35 H35            5.6223     6.7605     4.2406 H       
  36 H36            3.9974    -0.3753    -1.5308 H       
  37 H37            4.4818     0.3400     0.0254 H       
  38 H38            3.6869    -1.2521    -0.0133 H       
@<TRIPOS>BOND
   1    1    2 ar
   2    1    6 ar
   3    1    7 1
   4    2    3 ar
   5    2   25 1
   6    3    4 ar
   7    3   26 1
   8    4    5 ar
   9    4   24 1
  10    5    6 ar
  11    5   27 1
  12    6   28 1
  13    7    8 2
  14    7    9 2
  15    7   10 am
  16   10   12 1
  17   10   29 1
  18   11   12 1
  19   11   15 1
  20   12   13 2
  21   13   14 1
  22   14   15 1
  23   14   16 2
  24   15   17 2
  25   17   19 1
  26   17   30 1
  27   18   19 1
  28   18   22 1
  29   19   20 2
  30   20   21 1
  31   20   31 1
  32   21   22 2
  33   21   32 1
  34   22   23 1
  35   23   33 1
  36   23   34 1
  37   23   35 1
  38   24   36 1
  39   24   37 1
  40   24   38 1

#	End of record

