#	Name: ASD01948125
#	Creating user name:	WinNT
#	Creation time:	15. 06. 2019 20:13

#	Modifying user name:	WinNT
#	Modification time:	15. 06. 2019 20:13

#	Program:	/corina/corina34_cracker 3.40 0067  02.08.2006

@<TRIPOS>MOLECULE
ASD01948125
  34   36    0    0    0
SMALL
NO_CHARGES


@<TRIPOS>ATOM
   1 C1             1.8013     1.4214    -1.0464 C.ar    
   2 C2             1.6017     0.0483    -1.1451 C.ar    
   3 C3             1.7759    -0.5921    -2.3639 C.ar    
   4 C4             2.1474     0.1337    -3.4791 C.ar    
   5 C5             2.3470     1.5043    -3.3816 C.ar    
   6 C6             2.1674     2.1477    -2.1637 C.ar    
   7 N7             1.2251    -0.6884    -0.0138 N.pl3   
   8 C8             3.6367    -2.2791    -0.4396 C.2     
   9 C9             2.3575    -2.8703    -0.2911 C.2     
  10 C10            1.1564    -2.0650    -0.0783 C.2     
  11 N11            4.6941    -3.0990    -0.6382 N.am    
  12 F12            1.6320     2.0455     0.1398 F       
  13 C13            2.2451    -4.2666    -0.3501 C.2     
  14 N14            1.0190    -4.8535    -0.2084 N.am    
  15 C15           -0.0911    -4.1225    -0.0124 C.2     
  16 C16           -0.0540    -2.7273     0.0571 C.2     
  17 C17            4.5184    -4.4401    -0.6908 C.2     
  18 N18            3.3489    -5.0010    -0.5449 N.2     
  19 O19            3.7791    -1.0699    -0.3948 O.2     
  20 C20            0.9125    -6.3132    -0.2721 C.3     
  21 O21           -1.1629    -4.6934     0.1079 O.2     
  22 N22            2.7237     2.2383    -4.5117 N.pl3   
  23 H23            1.6212    -1.6582    -2.4405 H       
  24 H24            2.2831    -0.3654    -4.4272 H       
  25 H25            2.3227     3.2138    -2.0880 H       
  26 H26            1.0128    -0.2305     0.8146 H       
  27 H27            5.5825    -2.7241    -0.7434 H       
  28 H28           -0.9640    -2.1676     0.2153 H       
  29 H29            5.3804    -5.0708    -0.8509 H       
  30 H30            1.0298    -6.7301     0.7282 H       
  31 H31           -0.0645    -6.5893    -0.6685 H       
  32 H32            1.6932    -6.7063    -0.9234 H       
  33 H33            2.8455     1.7896    -5.3630 H       
  34 H34            2.8632     3.1958    -4.4437 H       
@<TRIPOS>BOND
   1    1    2 ar
   2    1   12 1
   3    1    6 ar
   4    2    3 ar
   5    2    7 1
   6    3    4 ar
   7    3   23 1
   8    4    5 ar
   9    4   24 1
  10    5    6 ar
  11    5   22 1
  12    6   25 1
  13    7   10 1
  14    7   26 1
  15    8    9 1
  16    8   19 2
  17    8   11 am
  18    9   10 1
  19    9   13 2
  20   10   16 2
  21   11   17 1
  22   11   27 1
  23   13   14 1
  24   13   18 1
  25   14   15 am
  26   14   20 1
  27   15   16 1
  28   15   21 2
  29   16   28 1
  30   17   18 2
  31   17   29 1
  32   20   30 1
  33   20   31 1
  34   20   32 1
  35   22   33 1
  36   22   34 1

#	End of record

