#	Name: ASD01900174
#	Creating user name:	WinNT
#	Creation time:	15. 06. 2019 19:51

#	Modifying user name:	WinNT
#	Modification time:	15. 06. 2019 19:51

#	Program:	/corina/corina34_cracker 3.40 0067  02.08.2006

@<TRIPOS>MOLECULE
ASD01900174
  33   36    0    0    0
SMALL
NO_CHARGES


@<TRIPOS>ATOM
   1 N1            -0.0168     1.3872     0.0097 N.pl3   
   2 C2             0.0707    -0.0014    -0.0079 C.ar    
   3 C3            -1.0860    -0.7664     0.1036 C.ar    
   4 C4            -0.9845    -2.1457     0.0842 C.ar    
   5 C5             0.2751    -2.7158    -0.0464 C.ar    
   6 C6             1.3806    -1.8960    -0.1524 C.ar    
   7 N7             1.2534    -0.5827    -0.1359 N.ar    
   8 C8             0.4334    -4.2143    -0.0718 C.3     
   9 N9             2.3468     1.6904     0.0946 N.2     
  10 C10            1.1385     2.1550     0.0111 C.2     
  11 S11            1.1926     3.9116    -0.1005 S.3     
  12 C12            2.9470     3.8684    -0.0264 C.2     
  13 C13            3.8941     5.0369    -0.0858 C.3     
  14 C14            5.1610     4.7881     0.7324 C.3     
  15 C15            5.6728     3.3898     0.5097 C.2     
  16 N16            6.8817     2.9234     0.5397 N.2     
  17 N17            6.8359     1.5433     0.2830 N.pl3   
  18 C18            5.5411     1.1896     0.0891 C.2     
  19 C19            4.8039     2.3026     0.2143 C.2     
  20 C20            3.3370     2.5644     0.0878 C.2     
  21 H21           -0.8857     1.8184     0.0168 H       
  22 H22           -2.0499    -0.2898     0.2042 H       
  23 H23           -1.8650    -2.7653     0.1691 H       
  24 H24            2.3621    -2.3351    -0.2541 H       
  25 H25            0.3684    -4.5691    -1.1004 H       
  26 H26            1.4037    -4.4842     0.3451 H       
  27 H27           -0.3574    -4.6733     0.5215 H       
  28 H28            4.1722     5.2154    -1.1245 H       
  29 H29            3.3898     5.9221     0.3018 H       
  30 H30            5.9277     5.5029     0.4332 H       
  31 H31            4.9375     4.9243     1.7905 H       
  32 H32            7.5993     0.9458     0.2500 H       
  33 H33            5.1728     0.1974    -0.1262 H       
@<TRIPOS>BOND
   1    1    2 1
   2    1   10 1
   3    1   21 1
   4    2    3 ar
   5    2    7 ar
   6    3    4 ar
   7    3   22 1
   8    4    5 ar
   9    4   23 1
  10    5    6 ar
  11    5    8 1
  12    6    7 ar
  13    6   24 1
  14    8   25 1
  15    8   26 1
  16    8   27 1
  17    9   10 2
  18    9   20 1
  19   10   11 1
  20   11   12 1
  21   12   13 1
  22   12   20 2
  23   13   14 1
  24   13   28 1
  25   13   29 1
  26   14   15 1
  27   14   30 1
  28   14   31 1
  29   15   16 2
  30   15   19 1
  31   16   17 1
  32   17   18 1
  33   17   32 1
  34   18   19 2
  35   18   33 1
  36   19   20 1

#	End of record

