#	Name: ASD01881273
#	Creating user name:	WinNT
#	Creation time:	15. 06. 2019 19:42

#	Modifying user name:	WinNT
#	Modification time:	15. 06. 2019 19:42

#	Program:	/corina/corina34_cracker 3.40 0067  02.08.2006

@<TRIPOS>MOLECULE
ASD01881273
  56   59    0    0    0
SMALL
NO_CHARGES


@<TRIPOS>ATOM
   1 C1             0.1667     0.7680     0.1655 C.2     
   2 N2             0.2723    -0.5719     0.1656 N.am    
   3 C3             1.6939    -0.9336     0.1302 C.3     
   4 C4             2.4585     0.3666     0.1081 C.ar    
   5 C5             3.7966     0.6689     0.0730 C.ar    
   6 C6             4.2077     2.0000     0.0594 C.ar    
   7 C7             3.2617     3.0216     0.0813 C.ar    
   8 C8             1.9193     2.7223     0.1165 C.ar    
   9 C9             1.5021     1.3874     0.1303 C.ar    
  10 O10           -0.8829     1.3816     0.1863 O.2     
  11 N11            5.5631     2.3086     0.0243 N.pl3   
  12 C12            5.9955     3.7082     0.0100 C.3     
  13 C13            8.2184     4.0560     1.1139 C.ar    
  14 C14            7.5009     3.7685    -0.0283 C.ar    
  15 C15            8.1879     3.5339    -1.2189 C.ar    
  16 C16            9.5811     3.6009    -1.2020 C.ar    
  17 C17           10.2233     3.8943    -0.0178 C.ar    
  18 N18            9.5369     4.1102     1.0889 N.ar    
  19 N19            7.5014     3.2401    -2.3934 N.3     
  20 C20            7.8120     1.8808    -2.8592 C.3     
  21 C21            6.9925     1.5783    -4.1165 C.3     
  22 O22            7.2709     2.5681    -5.1105 O.3     
  23 C23            6.9794     3.9038    -4.6905 C.3     
  24 C24            7.7987     4.2298    -3.4390 C.3     
  25 C25           -0.8476    -1.5159     0.1961 C.3     
  26 C26           -1.2737    -1.8479    -1.2354 C.3     
  27 C27           -2.4433    -2.8338    -1.2036 C.3     
  28 C28           -2.8695    -3.1659    -2.6350 C.3     
  29 H29            1.9568    -1.5078     1.0186 H       
  30 H30            1.9113    -1.5115    -0.7681 H       
  31 H31            4.5300    -0.1238     0.0563 H       
  32 H32            3.5829     4.0526     0.0711 H       
  33 H33            1.1885     3.5173     0.1338 H       
  34 H34            6.2222     1.5971     0.0093 H       
  35 H35            5.5895     4.2050    -0.8712 H       
  36 H36            5.6346     4.2093     0.9082 H       
  37 H37            7.6946     4.2435     2.0395 H       
  38 H38           10.1488     3.4250    -2.1038 H       
  39 H39           11.3018     3.9479     0.0047 H       
  40 H40            8.8746     1.8095    -3.0915 H       
  41 H41            7.5603     1.1623    -2.0791 H       
  42 H42            7.2616     0.5934    -4.4982 H       
  43 H43            5.9304     1.5968    -3.8719 H       
  44 H44            7.2390     4.6007    -5.4873 H       
  45 H45            5.9169     3.9899    -4.4626 H       
  46 H46            7.5374     5.2260    -3.0822 H       
  47 H47            8.8611     4.1961    -3.6806 H       
  48 H48           -0.5391    -2.4293     0.7045 H       
  49 H49           -1.6857    -1.0682     0.7301 H       
  50 H50           -1.5822    -0.9345    -1.7438 H       
  51 H51           -0.4356    -2.2956    -1.7694 H       
  52 H52           -2.1348    -3.7473    -0.6952 H       
  53 H53           -3.2815    -2.3861    -0.6696 H       
  54 H54           -3.1780    -2.2524    -3.1434 H       
  55 H55           -2.0314    -3.6136    -3.1690 H       
  56 H56           -3.7027    -3.8682    -2.6124 H       
@<TRIPOS>BOND
   1    1    2 am
   2    1    9 1
   3    1   10 2
   4    2    3 1
   5    2   25 1
   6    3    4 1
   7    3   29 1
   8    3   30 1
   9    4    5 ar
  10    4    9 ar
  11    5    6 ar
  12    5   31 1
  13    6    7 ar
  14    6   11 1
  15    7    8 ar
  16    7   32 1
  17    8    9 ar
  18    8   33 1
  19   11   12 1
  20   11   34 1
  21   12   14 1
  22   12   35 1
  23   12   36 1
  24   13   14 ar
  25   13   18 ar
  26   13   37 1
  27   14   15 ar
  28   15   16 ar
  29   15   19 1
  30   16   17 ar
  31   16   38 1
  32   17   18 ar
  33   17   39 1
  34   19   20 1
  35   19   24 1
  36   20   21 1
  37   20   40 1
  38   20   41 1
  39   21   22 1
  40   21   42 1
  41   21   43 1
  42   22   23 1
  43   23   24 1
  44   23   44 1
  45   23   45 1
  46   24   46 1
  47   24   47 1
  48   25   26 1
  49   25   48 1
  50   25   49 1
  51   26   27 1
  52   26   50 1
  53   26   51 1
  54   27   28 1
  55   27   52 1
  56   27   53 1
  57   28   54 1
  58   28   55 1
  59   28   56 1

#	End of record

