#	Name: ASD02038810
#	Creating user name:	WinNT
#	Creation time:	15. 06. 2019 20:17

#	Modifying user name:	WinNT
#	Modification time:	15. 06. 2019 20:17

#	Program:	/corina/corina34_cracker 3.40 0067  02.08.2006

@<TRIPOS>MOLECULE
ASD02038810
  50   52    0    0    0
SMALL
NO_CHARGES


@<TRIPOS>ATOM
   1 C1            -1.2240    -0.2024     0.0887 C.2     
   2 C2             0.1790     0.2471     0.0783 C.2     
   3 N3             1.1769    -0.6587     0.0895 N.am    
   4 C4             0.8704    -2.0845     0.2290 C.3     
   5 C5             0.6195    -2.6898    -1.1536 C.3     
   6 C6             2.5681    -0.2176    -0.0377 C.3     
   7 O7             0.4367     1.4356     0.0595 O.2     
   8 N8            -1.6558    -1.4868     0.0062 N.2     
   9 C9            -2.9568    -1.4969     0.0463 C.2     
  10 N10           -3.4059    -0.2195     0.1559 N.pl3   
  11 C11           -2.3257     0.5959     0.1890 C.2     
  12 C12            0.3042    -4.1565    -1.0102 C.ar    
  13 C13            2.7360     0.5806    -1.3343 C.3     
  14 C14            4.1722     1.1038    -1.4199 C.3     
  15 O15            4.4560     1.9030    -0.2697 O.3     
  16 C16            4.3611     1.1970     0.9691 C.3     
  17 C17            2.9325     0.6775     1.1507 C.3     
  18 C18           -1.0041    -4.5683    -0.8470 C.ar    
  19 C19           -4.8076     0.2000     0.2313 C.3     
  20 C20           -1.2937    -5.9189    -0.7154 C.ar    
  21 C21           -0.2681    -6.8522    -0.7482 C.ar    
  22 C22            1.0389    -6.4351    -0.9117 C.ar    
  23 C23            1.3244    -5.0893    -1.0479 C.ar    
  24 O24           -2.5801    -6.3265    -0.5542 O.3     
  25 C25           -2.8039    -7.7320    -0.4252 C.3     
  26 F26           -2.1141    -8.2133     0.6927 F       
  27 F27           -4.1728    -7.9738    -0.2682 F       
  28 F28           -2.3437    -8.3849    -1.5738 F       
  29 H29            1.7115    -2.5925     0.7007 H       
  30 H30           -0.0199    -2.2061     0.8459 H       
  31 H31           -0.2217    -2.1818    -1.6254 H       
  32 H32            1.5098    -2.5682    -1.7706 H       
  33 H33            3.2259    -1.0865    -0.0566 H       
  34 H34           -3.5789    -2.3785    -0.0004 H       
  35 H35           -2.3347     1.6727     0.2714 H       
  36 H36            2.5320    -0.0651    -2.1885 H       
  37 H37            2.0415     1.4207    -1.3374 H       
  38 H38            4.8640     0.2623    -1.4575 H       
  39 H39            4.2858     1.7084    -2.3197 H       
  40 H40            5.0554     0.3567     0.9628 H       
  41 H41            4.6108     1.8688     1.7904 H       
  42 H42            2.2420     1.5196     1.1978 H       
  43 H43            2.8691     0.1012     2.0737 H       
  44 H44           -1.8008    -3.8397    -0.8214 H       
  45 H45           -5.1229     0.2279     1.2743 H       
  46 H46           -4.9139     1.1923    -0.2071 H       
  47 H47           -5.4287    -0.5081    -0.3173 H       
  48 H48           -0.4909    -7.9039    -0.6457 H       
  49 H49            1.8379    -7.1614    -0.9374 H       
  50 H50            2.3467    -4.7652    -1.1756 H       
@<TRIPOS>BOND
   1    1    2 1
   2    1    8 1
   3    1   11 2
   4    2    3 am
   5    2    7 2
   6    3    4 1
   7    3    6 1
   8    4    5 1
   9    4   29 1
  10    4   30 1
  11    5   12 1
  12    5   31 1
  13    5   32 1
  14    6   13 1
  15    6   17 1
  16    6   33 1
  17    8    9 2
  18    9   10 1
  19    9   34 1
  20   10   11 1
  21   10   19 1
  22   11   35 1
  23   12   18 ar
  24   12   23 ar
  25   13   14 1
  26   13   36 1
  27   13   37 1
  28   14   15 1
  29   14   38 1
  30   14   39 1
  31   15   16 1
  32   16   17 1
  33   16   40 1
  34   16   41 1
  35   17   42 1
  36   17   43 1
  37   18   20 ar
  38   18   44 1
  39   19   45 1
  40   19   46 1
  41   19   47 1
  42   20   21 ar
  43   20   24 1
  44   21   22 ar
  45   21   48 1
  46   22   23 ar
  47   22   49 1
  48   23   50 1
  49   24   25 1
  50   25   26 1
  51   25   27 1
  52   25   28 1

#	End of record

