#	Name: ASD05740159
#	Creating user name:	WinNT
#	Creation time:	15. 06. 2019 21:02

#	Modifying user name:	WinNT
#	Modification time:	15. 06. 2019 21:02

#	Program:	/corina/corina34_cracker 3.40 0067  02.08.2006

@<TRIPOS>MOLECULE
ASD05740159
  63   68    0    0    0
SMALL
NO_CHARGES


@<TRIPOS>ATOM
   1 C1             0.9531    -0.8271    -0.0440 C.3     
   2 N2             0.0371    -0.1445     0.8805 N.3     
   3 C3            -1.2685    -0.6286     0.7416 C.ar    
   4 C4            -2.2886    -0.1107     1.5289 C.ar    
   5 C5            -3.5768    -0.5884     1.3918 C.ar    
   6 C6            -3.8523    -1.5871     0.4670 C.ar    
   7 C7            -2.8322    -2.1053    -0.3199 C.ar    
   8 C8            -1.5452    -1.6230    -0.1876 C.ar    
   9 N9            -5.1590    -2.0720     0.3283 N.pl3   
  10 C10           -6.2334    -1.2225     0.5064 C.ar    
  11 N11           -6.0003     0.0714     0.6975 N.ar    
  12 N12           -7.4577    -1.7281     0.4747 N.ar    
  13 C13           -8.5129    -0.9414     0.6420 C.ar    
  14 C14           -8.3033     0.4392     0.8533 C.ar    
  15 C15           -6.9916     0.9266     0.8729 C.ar    
  16 N16           -9.7918    -1.4348     0.6140 N.am    
  17 C17          -10.8502    -0.6228     0.7850 C.2     
  18 C18          -10.6974     0.7620     0.9988 C.2     
  19 C19           -9.4567     1.3145     1.0386 C.2     
  20 C20          -10.0085    -2.8669     0.3943 C.3     
  21 O21          -11.9723    -1.0974     0.7538 O.2     
  22 C22          -11.7610    -4.3641     1.4187 C.ar    
  23 C23          -10.7325    -3.4526     1.5800 C.ar    
  24 C24          -12.4007    -4.8868     2.5383 C.ar    
  25 C25          -12.0143    -4.4968     3.8041 C.ar    
  26 C26          -10.9883    -3.5831     3.9621 C.ar    
  27 C27          -10.3499    -3.0636     2.8531 C.ar    
  28 O28          -12.1755    -4.7653     0.1888 O.3     
  29 C29          -11.3050    -4.5301    -0.9188 C.3     
  30 C30            0.5017    -0.2735     2.2687 C.3     
  31 C31            1.8991     0.3378     2.3951 C.3     
  32 N32            2.8151    -0.3448     1.4706 N.3     
  33 C33            2.3504    -0.2158     0.0824 C.3     
  34 C34            4.1856     0.1634     1.6164 C.3     
  35 C35          -10.8460    -3.0671    -0.8713 C.3     
  36 H36            0.9963    -1.8877     0.2039 H       
  37 H37            0.5945    -0.7067    -1.0663 H       
  38 H38           -2.0742     0.6655     2.2486 H       
  39 H39           -4.3701    -0.1857     2.0041 H       
  40 H40           -3.0464    -2.8825    -1.0386 H       
  41 H41           -0.7519    -2.0260    -0.7996 H       
  42 H42           -5.3094    -3.0044     0.1073 H       
  43 H43           -6.7944     1.9765     1.0322 H       
  44 H44          -11.5691     1.3857     1.1317 H       
  45 H45           -9.3272     2.3741     1.2021 H       
  46 H46           -9.0465    -3.3653     0.2751 H       
  47 H47          -13.2025    -5.6000     2.4162 H       
  48 H48          -12.5128    -4.9047     4.6710 H       
  49 H49          -10.6862    -3.2761     4.9525 H       
  50 H50           -9.5487    -2.3504     2.9791 H       
  51 H51          -10.4392    -5.1888    -0.8515 H       
  52 H52          -11.8381    -4.7175    -1.8509 H       
  53 H53           -0.1859     0.2505     2.9325 H       
  54 H54            0.5399    -1.3278     2.5429 H       
  55 H55            1.8558     1.3984     2.1471 H       
  56 H56            2.2577     0.2174     3.4173 H       
  57 H57            3.0381    -0.7398    -0.5814 H       
  58 H58            2.3123     0.8385    -0.1918 H       
  59 H59            4.5291    -0.0055     2.6370 H       
  60 H60            4.8426    -0.3587     0.9208 H       
  61 H61            4.2021     1.2315     1.3996 H       
  62 H62          -11.7153    -2.4100    -0.8444 H       
  63 H63          -10.2423    -2.8427    -1.7507 H       
@<TRIPOS>BOND
   1    1    2 1
   2    1   33 1
   3    1   36 1
   4    1   37 1
   5    2    3 1
   6    2   30 1
   7    3    4 ar
   8    3    8 ar
   9    4    5 ar
  10    4   38 1
  11    5    6 ar
  12    5   39 1
  13    6    7 ar
  14    6    9 1
  15    7    8 ar
  16    7   40 1
  17    8   41 1
  18    9   10 1
  19    9   42 1
  20   10   11 ar
  21   10   12 ar
  22   11   15 ar
  23   12   13 ar
  24   13   14 ar
  25   13   16 1
  26   14   15 ar
  27   14   19 1
  28   15   43 1
  29   16   17 am
  30   16   20 1
  31   17   18 1
  32   17   21 2
  33   18   19 2
  34   18   44 1
  35   19   45 1
  36   20   35 1
  37   20   23 1
  38   20   46 1
  39   22   23 ar
  40   22   24 ar
  41   22   28 1
  42   23   27 ar
  43   24   25 ar
  44   24   47 1
  45   25   26 ar
  46   25   48 1
  47   26   27 ar
  48   26   49 1
  49   27   50 1
  50   28   29 1
  51   29   35 1
  52   29   51 1
  53   29   52 1
  54   30   31 1
  55   30   53 1
  56   30   54 1
  57   31   32 1
  58   31   55 1
  59   31   56 1
  60   32   33 1
  61   32   34 1
  62   33   57 1
  63   33   58 1
  64   34   59 1
  65   34   60 1
  66   34   61 1
  67   35   62 1
  68   35   63 1

#	End of record

