#	Name: ASD03090958
#	Creating user name:	WinNT
#	Creation time:	15. 06. 2019 20:29

#	Modifying user name:	WinNT
#	Modification time:	15. 06. 2019 20:29

#	Program:	/corina/corina34_cracker 3.40 0067  02.08.2006

@<TRIPOS>MOLECULE
ASD03090958
  51   54    0    0    0
SMALL
NO_CHARGES


@<TRIPOS>ATOM
   1 N1            -0.1363     1.5218    -0.0763 N.am    
   2 C2            -0.0623     0.1761    -0.0660 C.2     
   3 O3             1.0196    -0.3756    -0.1705 O.2     
   4 N4            -1.1747    -0.5531     0.0586 N.2     
   5 C5             1.0347     2.2865    -0.0985 C.ar    
   6 C6             1.3278     3.0785    -1.2010 C.ar    
   7 C7             2.4847     3.8327    -1.2196 C.ar    
   8 C8             3.3509     3.7995    -0.1422 C.ar    
   9 C9             3.0621     3.0115     0.9569 C.ar    
  10 C10            1.9039     2.2597     0.9844 C.ar    
  11 S11            0.3196    -2.8453    -0.0647 S.3     
  12 C12           -1.1016    -1.8821     0.0688 C.2     
  13 N13           -2.1316    -2.7576     0.1869 N.pl3   
  14 C14           -1.8185    -4.0827     0.1726 C.2     
  15 C15           -0.5354    -4.3936     0.0445 C.2     
  16 O16           -7.3558    -1.0007     0.7152 O.3     
  17 C17           -8.3959    -1.9054     0.3285 C.3     
  18 C18           -8.0833    -3.2821     0.9303 C.3     
  19 O19           -6.8165    -3.7155     0.4230 O.3     
  20 C20           -5.8067    -2.8028     0.4380 C.ar    
  21 C21           -6.0759    -1.4463     0.5813 C.ar    
  22 C22           -4.4970    -3.2370     0.3076 C.ar    
  23 C23           -3.4566    -2.3183     0.3180 C.ar    
  24 C24           -3.7285    -0.9645     0.4586 C.ar    
  25 C25           -5.0338    -0.5312     0.5900 C.ar    
  26 F26           -8.0251    -3.1854     2.3247 F       
  27 F27           -9.0768    -4.1952     0.5609 F       
  28 F28           -9.6251    -1.4464     0.8140 F       
  29 F29           -8.4444    -2.0001    -1.0664 F       
  30 C30            0.0683    -5.7736     0.0003 C.3     
  31 C31           -1.4433     2.1836    -0.0703 C.3     
  32 C32           -1.8690     2.4165     1.3194 C.1     
  33 C33           -2.2085     2.6022     2.4278 C.1     
  34 C34           -2.6342     2.8352     3.8175 C.3     
  35 H35            0.6521     3.1044    -2.0431 H       
  36 H36            2.7132     4.4489    -2.0767 H       
  37 H37            4.2550     4.3899    -0.1593 H       
  38 H38            3.7410     2.9872     1.7965 H       
  39 H39            1.6766     1.6482     1.8451 H       
  40 H40           -2.5789    -4.8444     0.2617 H       
  41 H41           -4.2859    -4.2905     0.1980 H       
  42 H42           -2.9192    -0.2493     0.4657 H       
  43 H43           -5.2432     0.5226     0.6994 H       
  44 H44            1.1495    -5.6938    -0.1124 H       
  45 H45           -0.1625    -6.3011     0.9258 H       
  46 H46           -0.3453    -6.3243    -0.8446 H       
  47 H47           -1.3699     3.1375    -0.5926 H       
  48 H48           -2.1739     1.5496    -0.5727 H       
  49 H49           -3.6067     3.3276     3.8219 H       
  50 H50           -2.7076     1.8812     4.3397 H       
  51 H51           -1.9037     3.4692     4.3199 H       
@<TRIPOS>BOND
   1    1    2 am
   2    1    5 1
   3    1   31 1
   4    2    3 2
   5    2    4 1
   6    4   12 2
   7    5    6 ar
   8    5   10 ar
   9    6    7 ar
  10    6   35 1
  11    7    8 ar
  12    7   36 1
  13    8    9 ar
  14    8   37 1
  15    9   10 ar
  16    9   38 1
  17   10   39 1
  18   11   12 1
  19   11   15 1
  20   12   13 1
  21   13   14 1
  22   13   23 1
  23   14   15 2
  24   14   40 1
  25   15   30 1
  26   16   17 1
  27   16   21 1
  28   17   18 1
  29   17   28 1
  30   17   29 1
  31   18   19 1
  32   18   26 1
  33   18   27 1
  34   19   20 1
  35   20   21 ar
  36   20   22 ar
  37   21   25 ar
  38   22   23 ar
  39   22   41 1
  40   23   24 ar
  41   24   25 ar
  42   24   42 1
  43   25   43 1
  44   30   44 1
  45   30   45 1
  46   30   46 1
  47   31   32 1
  48   31   47 1
  49   31   48 1
  50   32   33 3
  51   33   34 1
  52   34   49 1
  53   34   50 1
  54   34   51 1

#	End of record

