#	Name: ASD05430586
#	Creating user name:	WinNT
#	Creation time:	15. 06. 2019 21:00

#	Modifying user name:	WinNT
#	Modification time:	15. 06. 2019 21:00

#	Program:	/corina/corina34_cracker 3.40 0067  02.08.2006

@<TRIPOS>MOLECULE
ASD05430586
  41   42    0    0    0
SMALL
NO_CHARGES


@<TRIPOS>ATOM
   1 C1            -0.0167     1.3781     0.0096 C.ar    
   2 C2             0.0021    -0.0041     0.0020 C.ar    
   3 C3             1.2240     2.0444     0.0014 C.ar    
   4 C4             2.4091     1.3510    -0.0070 C.ar    
   5 C5             2.4069    -0.0314    -0.0079 C.ar    
   6 C6             1.2005    -0.7010    -0.0029 C.ar    
   7 C7             1.2515     3.5511     0.0011 C.3     
   8 C8             1.1854    -2.2079    -0.0034 C.3     
   9 C9             1.8961    -2.7246    -1.2560 C.3     
  10 C10            1.9069    -2.7256     1.2425 C.3     
  11 C11            1.9902     4.0479     1.2455 C.3     
  12 C12            1.9736     4.0479    -1.2529 C.3     
  13 C13           -1.4077    -0.6080    -0.0036 C.3     
  14 Si14          -2.3700     0.9661    -0.4173 Si      
  15 O15           -1.2138     2.0589     0.0370 O.3     
  16 C16           -2.7523     1.0828    -2.2369 C.3     
  17 C17           -3.9120     1.1236     0.6163 C.3     
  18 H18            3.3464     1.8876    -0.0132 H       
  19 H19            3.3372    -0.5800    -0.0121 H       
  20 H20            0.2306     3.9332     0.0079 H       
  21 H21            0.1541    -2.5609     0.0009 H       
  22 H22            1.8851    -3.8146    -1.2563 H       
  23 H23            1.3820    -2.3558    -2.1436 H       
  24 H24            2.9273    -2.3716    -1.2603 H       
  25 H25            1.4006    -2.3575     2.1348 H       
  26 H26            1.8960    -3.8155     1.2421 H       
  27 H27            2.9381    -2.3726     1.2382 H       
  28 H28            1.4757     3.6940     2.1389 H       
  29 H29            3.0110     3.6659     1.2387 H       
  30 H30            2.0101     5.1377     1.2453 H       
  31 H31            1.4473     3.6939    -2.1394 H       
  32 H32            1.9934     5.1377    -1.2531 H       
  33 H33            2.9944     3.6658    -1.2597 H       
  34 H34           -1.5185    -1.3634    -0.7816 H       
  35 H35           -1.6809    -1.0009     0.9757 H       
  36 H36           -3.3533     0.2246    -2.5376 H       
  37 H37           -3.3059     2.0009    -2.4337 H       
  38 H38           -1.8215     1.0911    -2.8040 H       
  39 H39           -3.6405     1.1551     1.6714 H       
  40 H40           -4.4367     2.0407     0.3486 H       
  41 H41           -4.5609     0.2671     0.4335 H       
@<TRIPOS>BOND
   1    1    2 ar
   2    1    3 ar
   3    1   15 1
   4    2   13 1
   5    2    6 ar
   6    3    4 ar
   7    3    7 1
   8    4    5 ar
   9    4   18 1
  10    5    6 ar
  11    5   19 1
  12    6    8 1
  13    7   11 1
  14    7   12 1
  15    7   20 1
  16    8    9 1
  17    8   10 1
  18    8   21 1
  19    9   22 1
  20    9   23 1
  21    9   24 1
  22   10   25 1
  23   10   26 1
  24   10   27 1
  25   11   28 1
  26   11   29 1
  27   11   30 1
  28   12   31 1
  29   12   32 1
  30   12   33 1
  31   13   14 1
  32   13   34 1
  33   13   35 1
  34   14   15 1
  35   14   16 1
  36   14   17 1
  37   16   36 1
  38   16   37 1
  39   16   38 1
  40   17   39 1
  41   17   40 1
  42   17   41 1

#	End of record

