#	Name: ASD01028748
#	Creating user name:	WinNT
#	Creation time:	15. 06. 2019 18:58

#	Modifying user name:	WinNT
#	Modification time:	15. 06. 2019 18:58

#	Program:	/corina/corina34_cracker 3.40 0067  02.08.2006

@<TRIPOS>MOLECULE
ASD01028748
  17   18    0    0    0
SMALL
NO_CHARGES


@<TRIPOS>ATOM
   1 N1            -0.0163     1.3505     0.0095 N.pl3   
   2 C2             0.0021    -0.0041     0.0020 C.2     
   3 C3             1.1514    -0.7118    -0.0123 C.2     
   4 C4             2.3968    -0.0439    -0.0201 C.2     
   5 C5             2.3880     1.4322    -0.0126 C.ar    
   6 N6             3.5189     2.1271    -0.0192 N.ar    
   7 C7             3.5155     3.4407    -0.0126 C.ar    
   8 C8             2.3231     4.1595     0.0022 C.ar    
   9 C9             1.1168     3.4818     0.0096 C.ar    
  10 C10            1.1452     2.0873     0.0023 C.ar    
  11 O11            3.4456    -0.6673    -0.0323 O.2     
  12 F12            2.3438     5.5103     0.0096 F       
  13 H13           -0.8694     1.8121     0.0160 H       
  14 H14           -0.9372    -0.5372     0.0081 H       
  15 H15            1.1191    -1.7913    -0.0175 H       
  16 H16            4.4551     3.9731    -0.0183 H       
  17 H17            0.1793     4.0177     0.0210 H       
@<TRIPOS>BOND
   1    1    2 1
   2    1   10 1
   3    1   13 1
   4    2    3 2
   5    2   14 1
   6    3    4 1
   7    3   15 1
   8    4    5 1
   9    4   11 2
  10    5    6 ar
  11    5   10 ar
  12    6    7 ar
  13    7    8 ar
  14    7   16 1
  15    8    9 ar
  16    8   12 1
  17    9   10 ar
  18    9   17 1

#	End of record

