#	Name: ASD05720145
#	Creating user name:	WinNT
#	Creation time:	15. 06. 2019 21:01

#	Modifying user name:	WinNT
#	Modification time:	15. 06. 2019 21:01

#	Program:	/corina/corina34_cracker 3.40 0067  02.08.2006

@<TRIPOS>MOLECULE
ASD05720145
  52   57    0    0    0
SMALL
NO_CHARGES


@<TRIPOS>ATOM
   1 O1            -0.0161     1.3334     0.0094 O.3     
   2 C2             0.0021    -0.0041     0.0020 C.2     
   3 N3             1.2348    -0.5293    -0.0126 N.am    
   4 C4             2.2183     0.5645    -0.0161 C.3     
   5 C5             1.3508     1.8379    -0.0010 C.3     
   6 O6            -1.0069    -0.6808     0.0087 O.2     
   7 C7             3.0621     0.5136    -1.2636 C.ar    
   8 C8             4.0526     1.4562    -1.4670 C.ar    
   9 C9             4.8266     1.4096    -2.6114 C.ar    
  10 C10            4.6105     0.4200    -3.5521 C.ar    
  11 C11            3.6207    -0.5232    -3.3483 C.ar    
  12 C12            2.8495    -0.4791    -2.2019 C.ar    
  13 C13            3.0990     0.4993     1.2333 C.3     
  14 C14            3.0997    -3.5830    -0.0460 C.2     
  15 N15            2.7934    -2.2820    -0.0360 N.2     
  16 C16            1.5348    -1.8852    -0.0223 C.2     
  17 C17            0.4948    -2.8369    -0.0171 C.2     
  18 C18            0.8012    -4.1541    -0.0267 C.2     
  19 N19            2.1143    -4.5345    -0.0412 N.pl3   
  20 N20            2.7294    -5.7914    -0.0540 N.2     
  21 C21            4.0305    -5.6364    -0.0661 C.2     
  22 C22            4.3226    -4.2670    -0.0674 C.2     
  23 C23            5.6706    -3.6561    -0.0859 C.ar    
  24 C24            6.6416    -4.0791     0.8236 C.ar    
  25 C25            7.8955    -3.5104     0.8059 C.ar    
  26 C26            8.1956    -2.5119    -0.1206 C.ar    
  27 C27            7.2260    -2.0887    -1.0296 C.ar    
  28 C28            5.9735    -2.6607    -1.0167 C.ar    
  29 N29           11.2841    -0.6732    -0.6295 N.pl3   
  30 N30            9.9485    -0.9540    -0.9602 N.2     
  31 C31            9.5462    -1.8994    -0.1388 C.2     
  32 N32           10.5590    -2.2168     0.6794 N.2     
  33 C33           11.6044    -1.4870     0.3926 C.2     
  34 H34            1.5314     2.4339    -0.8956 H       
  35 H35            1.5485     2.4243     0.8964 H       
  36 H36            4.2214     2.2293    -0.7321 H       
  37 H37            5.5999     2.1465    -2.7707 H       
  38 H38            5.2148     0.3840    -4.4465 H       
  39 H39            3.4517    -1.2961    -4.0834 H       
  40 H40            2.0787    -1.2182    -2.0409 H       
  41 H41            3.6293    -0.4528     1.2547 H       
  42 H42            3.8201     1.3164     1.2125 H       
  43 H43            2.4751     0.5878     2.1227 H       
  44 H44           -0.5367    -2.5172    -0.0052 H       
  45 H45            0.0174    -4.8972    -0.0225 H       
  46 H46            4.7584    -6.4342    -0.0770 H       
  47 H47            6.4092    -4.8521     1.5413 H       
  48 H48            8.6466    -3.8373     1.5097 H       
  49 H49            7.4591    -1.3155    -1.7467 H       
  50 H50            5.2243    -2.3363    -1.7238 H       
  51 H51           11.8633    -0.0231    -1.0569 H       
  52 H52           12.5617    -1.5301     0.8907 H       
@<TRIPOS>BOND
   1    1    2 1
   2    1    5 1
   3    2    3 am
   4    2    6 2
   5    3    4 1
   6    3   16 1
   7    4    5 1
   8    4    7 1
   9    4   13 1
  10    5   34 1
  11    5   35 1
  12    7    8 ar
  13    7   12 ar
  14    8    9 ar
  15    8   36 1
  16    9   10 ar
  17    9   37 1
  18   10   11 ar
  19   10   38 1
  20   11   12 ar
  21   11   39 1
  22   12   40 1
  23   13   41 1
  24   13   42 1
  25   13   43 1
  26   14   15 1
  27   14   19 1
  28   14   22 2
  29   15   16 2
  30   16   17 1
  31   17   18 2
  32   17   44 1
  33   18   19 1
  34   18   45 1
  35   19   20 1
  36   20   21 2
  37   21   22 1
  38   21   46 1
  39   22   23 1
  40   23   24 ar
  41   23   28 ar
  42   24   25 ar
  43   24   47 1
  44   25   26 ar
  45   25   48 1
  46   26   27 ar
  47   26   31 1
  48   27   28 ar
  49   27   49 1
  50   28   50 1
  51   29   30 1
  52   29   33 1
  53   29   51 1
  54   30   31 2
  55   31   32 1
  56   32   33 2
  57   33   52 1

#	End of record

