#	Name: ASD03740170
#	Creating user name:	WinNT
#	Creation time:	15. 06. 2019 20:46

#	Modifying user name:	WinNT
#	Modification time:	15. 06. 2019 20:46

#	Program:	/corina/corina34_cracker 3.40 0067  02.08.2006

@<TRIPOS>MOLECULE
ASD03740170
  63   67    0    0    0
SMALL
NO_CHARGES


@<TRIPOS>ATOM
   1 C1            -0.0707     1.3749     0.9140 C.ar    
   2 C2            -0.0505    -0.0242     0.8710 C.ar    
   3 C3            -1.2047    -0.7323     0.7093 C.ar    
   4 C4            -2.4227    -0.0667     0.5844 C.ar    
   5 C5            -2.4565     1.3410     0.6265 C.ar    
   6 C6            -1.2709     2.0591     0.7977 C.ar    
   7 N7            -3.7163    -0.4880     0.4148 N.pl3   
   8 N8            -4.5582     0.6266     0.3500 N.2     
   9 C9            -3.8603     1.7229     0.4700 C.2     
  10 O10           -4.3494     2.9910     0.4527 O.3     
  11 C11           -4.1480    -1.8845     0.3166 C.3     
  12 C12           -4.4657    -2.4101     1.6928 C.ar    
  13 C13           -5.7465    -2.2913     2.1991 C.ar    
  14 C14           -6.0385    -2.7732     3.4612 C.ar    
  15 C15           -5.0485    -3.3745     4.2179 C.ar    
  16 C16           -3.7668    -3.4930     3.7106 C.ar    
  17 C17           -3.4774    -3.0159     2.4461 C.ar    
  18 C18           -5.7610     3.1398     0.2871 C.3     
  19 C19           -6.1213     4.6267     0.2926 C.3     
  20 C20           -7.6326     4.7860     0.1152 C.3     
  21 Cl21          -5.4143    -3.9794     5.8034 Cl      
  22 N22           -7.9785     6.2136     0.1205 N.3     
  23 C23           -9.3963     6.4151    -0.2307 C.3     
  24 C24           -7.7329     6.8134     1.4493 C.3     
  25 C25           -8.8361     7.8892     1.6079 C.3     
  26 C26          -10.0477     7.1980     0.9287 C.3     
  27 C27          -10.0886     5.0610    -0.3980 C.3     
  28 C28            1.1958     2.1279     1.0907 C.ar    
  29 C29            2.4156     1.4583     1.2156 C.ar    
  30 N30            3.5218     2.1640     1.3716 N.ar    
  31 C31            3.4838     3.4882     1.4100 C.ar    
  32 N32            2.3465     4.1587     1.2951 N.ar    
  33 C33            1.1991     3.5243     1.1306 C.ar    
  34 N34            4.6648     4.1903     1.5753 N.pl3   
  35 H35            0.8890    -0.5482     0.9666 H       
  36 H36           -1.1747    -1.8114     0.6775 H       
  37 H37           -1.2880     3.1384     0.8315 H       
  38 H38           -5.0376    -1.9466    -0.3103 H       
  39 H39           -3.3500    -2.4813    -0.1250 H       
  40 H40           -6.5192    -1.8216     1.6085 H       
  41 H41           -7.0391    -2.6800     3.8568 H       
  42 H42           -2.9936    -3.9623     4.3008 H       
  43 H43           -2.4770    -3.1084     2.0500 H       
  44 H44           -6.0643     2.6959    -0.6611 H       
  45 H45           -6.2777     2.6377     1.1051 H       
  46 H46           -5.8180     5.0706     1.2408 H       
  47 H47           -5.6046     5.1288    -0.5254 H       
  48 H48           -7.9359     4.3421    -0.8330 H       
  49 H49           -8.1493     4.2839     0.9332 H       
  50 H50           -9.4716     6.9867    -1.1557 H       
  51 H51           -7.8247     6.0578     2.2295 H       
  52 H52           -6.7458     7.2747     1.4808 H       
  53 H53           -9.0393     8.0879     2.6601 H       
  54 H54           -8.5656     8.8060     1.0841 H       
  55 H55          -10.7498     7.9391     0.5468 H       
  56 H56          -10.5424     6.5185     1.6226 H       
  57 H57           -9.9432     4.4648     0.5029 H       
  58 H58          -11.1548     5.2159    -0.5629 H       
  59 H59           -9.6609     4.5375    -1.2530 H       
  60 H60            2.4538     0.3794     1.1855 H       
  61 H61            0.2760     4.0772     1.0376 H       
  62 H62            5.5049     3.7131     1.6612 H       
  63 H63            4.6525     5.1598     1.6054 H       
@<TRIPOS>BOND
   1    1    2 ar
   2    1   28 1
   3    1    6 ar
   4    2    3 ar
   5    2   35 1
   6    3    4 ar
   7    3   36 1
   8    4    5 ar
   9    4    7 1
  10    5    6 ar
  11    5    9 1
  12    6   37 1
  13    7    8 1
  14    7   11 1
  15    8    9 2
  16    9   10 1
  17   10   18 1
  18   11   12 1
  19   11   38 1
  20   11   39 1
  21   12   13 ar
  22   12   17 ar
  23   13   14 ar
  24   13   40 1
  25   14   15 ar
  26   14   41 1
  27   15   16 ar
  28   15   21 1
  29   16   17 ar
  30   16   42 1
  31   17   43 1
  32   18   19 1
  33   18   44 1
  34   18   45 1
  35   19   20 1
  36   19   46 1
  37   19   47 1
  38   20   22 1
  39   20   48 1
  40   20   49 1
  41   22   23 1
  42   22   24 1
  43   23   27 1
  44   23   26 1
  45   23   50 1
  46   24   25 1
  47   24   51 1
  48   24   52 1
  49   25   26 1
  50   25   53 1
  51   25   54 1
  52   26   55 1
  53   26   56 1
  54   27   57 1
  55   27   58 1
  56   27   59 1
  57   28   29 ar
  58   28   33 ar
  59   29   30 ar
  60   29   60 1
  61   30   31 ar
  62   31   32 ar
  63   31   34 1
  64   32   33 ar
  65   33   61 1
  66   34   62 1
  67   34   63 1

#	End of record

