#	Name: ASD01916143
#	Creating user name:	WinNT
#	Creation time:	15. 06. 2019 20:06

#	Modifying user name:	WinNT
#	Modification time:	15. 06. 2019 20:06

#	Program:	/corina/corina34_cracker 3.40 0067  02.08.2006

@<TRIPOS>MOLECULE
ASD01916143
  46   49    0    0    0
SMALL
NO_CHARGES


@<TRIPOS>ATOM
   1 C1            -0.3915     1.4262     0.5811 C.ar    
   2 C2            -0.3231     0.0467     0.5023 C.ar    
   3 C3            -1.4896    -0.7022     0.4531 C.ar    
   4 C4            -2.7220    -0.0659     0.4831 C.ar    
   5 C5            -2.7862     1.3121     0.5618 C.ar    
   6 C6            -1.6238     2.0578     0.6165 C.ar    
   7 O7            -1.4253    -2.0574     0.3753 O.3     
   8 C8            -2.6664    -2.7641     0.3281 C.3     
   9 C9            -2.3985    -4.2447     0.2441 C.2     
  10 C10           -1.1356    -4.8500     0.2156 C.2     
  11 N11           -3.3067    -5.1874     0.1908 N.2     
  12 N12           -2.6521    -6.4203     0.1252 N.pl3   
  13 C13           -1.3203    -6.1814     0.1372 C.2     
  14 C14           -3.2653    -7.7500     0.0642 C.3     
  15 C15           -2.2341    -8.7586    -0.4533 C.3     
  16 N16           -0.9585    -8.5509     0.2488 N.am    
  17 C17           -0.2672    -7.2617     0.0658 C.3     
  18 C18           -0.4373    -9.5094     1.0400 C.2     
  19 C19            0.9165    -9.3383     1.6174 C.ar    
  20 O20           -1.0776   -10.5139     1.2799 O.2     
  21 C21            1.3870   -10.2524     2.5569 C.ar    
  22 C22            2.6557   -10.0793     3.0882 C.ar    
  23 C23            3.4093    -8.9975     2.6610 C.ar    
  24 C24            2.8773    -8.1272     1.7226 C.ar    
  25 N25            1.6728    -8.3182     1.2309 N.ar    
  26 F26            0.7437     2.1571     0.6290 F       
  27 C27            3.6927    -6.9491     1.2552 C.3     
  28 H28            0.6374    -0.4465     0.4787 H       
  29 H29           -3.6312    -0.6476     0.4445 H       
  30 H30           -3.7460     1.8069     0.5851 H       
  31 H31           -1.6763     3.1347     0.6784 H       
  32 H32           -3.2412    -2.5495     1.2291 H       
  33 H33           -3.2321    -2.4469    -0.5479 H       
  34 H34           -0.1842    -4.3401     0.2504 H       
  35 H35           -3.5948    -8.0449     1.0605 H       
  36 H36           -4.1210    -7.7255    -0.6105 H       
  37 H37           -2.5909    -9.7717    -0.2678 H       
  38 H38           -2.0883    -8.6135    -1.5237 H       
  39 H39            0.2217    -7.2369    -0.9081 H       
  40 H40            0.4694    -7.1192     0.8565 H       
  41 H41            0.7721   -11.0842     2.8674 H       
  42 H42            3.0478   -10.7714     3.8187 H       
  43 H43            4.4012    -8.8341     3.0556 H       
  44 H44            4.2844    -7.2385     0.3868 H       
  45 H45            3.0260    -6.1304     0.9843 H       
  46 H46            4.3573    -6.6265     2.0566 H       
@<TRIPOS>BOND
   1    1    2 ar
   2    1   26 1
   3    1    6 ar
   4    2    3 ar
   5    2   28 1
   6    3    4 ar
   7    3    7 1
   8    4    5 ar
   9    4   29 1
  10    5    6 ar
  11    5   30 1
  12    6   31 1
  13    7    8 1
  14    8    9 1
  15    8   32 1
  16    8   33 1
  17    9   10 1
  18    9   11 2
  19   10   13 2
  20   10   34 1
  21   11   12 1
  22   12   13 1
  23   12   14 1
  24   13   17 1
  25   14   15 1
  26   14   35 1
  27   14   36 1
  28   15   16 1
  29   15   37 1
  30   15   38 1
  31   16   17 1
  32   16   18 am
  33   17   39 1
  34   17   40 1
  35   18   19 1
  36   18   20 2
  37   19   21 ar
  38   19   25 ar
  39   21   22 ar
  40   21   41 1
  41   22   23 ar
  42   22   42 1
  43   23   24 ar
  44   23   43 1
  45   24   25 ar
  46   24   27 1
  47   27   44 1
  48   27   45 1
  49   27   46 1

#	End of record

