#	Name: ASD01200011
#	Creating user name:	WinNT
#	Creation time:	15. 06. 2019 19:08

#	Modifying user name:	WinNT
#	Modification time:	15. 06. 2019 19:08

#	Program:	/corina/corina34_cracker 3.40 0067  02.08.2006

@<TRIPOS>MOLECULE
ASD01200011
  48   50    0    0    0
SMALL
NO_CHARGES


@<TRIPOS>ATOM
   1 C1            -0.0161     1.3439    -0.0126 C.2     
   2 N2             0.0023    -0.0038    -0.0210 N.am    
   3 C3             1.2096    -0.6790    -0.0458 C.2     
   4 O4             1.0280     1.9660    -0.0267 O.2     
   5 C5            -1.3061     2.0653     0.0077 C.ar    
   6 C6            -1.3274     3.4603     0.0165 C.ar    
   7 C7            -2.5386     4.1324     0.0350 C.ar    
   8 C8            -3.7290     3.4204     0.0453 C.ar    
   9 C9            -3.7124     2.0330     0.0371 C.ar    
  10 C10           -2.5062     1.3530     0.0123 C.ar    
  11 O11           -4.8817     1.3403     0.0481 O.3     
  12 C12           -6.0886     2.1051     0.0681 C.3     
  13 C13           -7.2915     1.1596     0.0781 C.3     
  14 C14           -8.5643     1.9662     0.0991 C.2     
  15 O15           -2.5605     5.4912     0.0436 O.3     
  16 C16           -1.3022     6.1597     0.1527 C.3     
  17 C17           -0.6755     6.2970    -1.2363 C.3     
  18 C18           -1.5138     7.5496     0.7564 C.3     
  19 S19            1.3991    -2.3811    -0.0593 S.3     
  20 C20            3.1498    -2.1702    -0.0880 C.2     
  21 N21            3.3971    -0.8859    -0.0844 N.2     
  22 N22            2.3918    -0.1222    -0.0683 N.2     
  23 C23           -9.2081     2.3714    -1.0573 C.2     
  24 C24          -10.3228     3.0775    -0.8620 C.2     
  25 S25          -10.6091     3.2626     0.8634 S.3     
  26 C26           -9.1588     2.3389     1.2335 C.2     
  27 C27            4.1505    -3.2440    -0.1116 C.2     
  28 O28            3.7947    -4.4066    -0.1125 O.2     
  29 O29            5.4645    -2.9409    -0.1322 O.3     
  30 H30           -0.8310    -0.5002    -0.0098 H       
  31 H31           -0.4010     4.0154     0.0092 H       
  32 H32           -4.6715     3.9475     0.0601 H       
  33 H33           -2.4942     0.2731     0.0056 H       
  34 H34           -6.1090     2.7285     0.9620 H       
  35 H35           -6.1319     2.7387    -0.8178 H       
  36 H36           -7.2711     0.5362    -0.8158 H       
  37 H37           -7.2482     0.5260     0.9640 H       
  38 H38           -0.6382     5.5817     0.7954 H       
  39 H39            0.2843     6.8069    -1.1530 H       
  40 H40           -0.5248     5.3068    -1.6663 H       
  41 H41           -1.3395     6.8751    -1.8790 H       
  42 H42           -1.9603     7.4518     1.7459 H       
  43 H43           -0.5540     8.0595     0.8396 H       
  44 H44           -2.1778     8.1277     0.1137 H       
  45 H45           -8.8360     2.1340    -2.0430 H       
  46 H46          -10.9527     3.4754    -1.6439 H       
  47 H47           -8.8015     2.1126     2.2272 H       
  48 H48            6.0857    -3.6818    -0.1473 H       
@<TRIPOS>BOND
   1    1    2 am
   2    1    4 2
   3    1    5 1
   4    2    3 1
   5    2   30 1
   6    3   19 1
   7    3   22 2
   8    5    6 ar
   9    5   10 ar
  10    6    7 ar
  11    6   31 1
  12    7    8 ar
  13    7   15 1
  14    8    9 ar
  15    8   32 1
  16    9   10 ar
  17    9   11 1
  18   10   33 1
  19   11   12 1
  20   12   13 1
  21   12   34 1
  22   12   35 1
  23   13   14 1
  24   13   36 1
  25   13   37 1
  26   14   23 1
  27   14   26 2
  28   15   16 1
  29   16   17 1
  30   16   18 1
  31   16   38 1
  32   17   39 1
  33   17   40 1
  34   17   41 1
  35   18   42 1
  36   18   43 1
  37   18   44 1
  38   19   20 1
  39   20   21 2
  40   20   27 1
  41   21   22 1
  42   23   24 2
  43   23   45 1
  44   24   25 1
  45   24   46 1
  46   25   26 1
  47   26   47 1
  48   27   28 2
  49   27   29 1
  50   29   48 1

#	End of record

