#	Name: ASD03540127
#	Creating user name:	WinNT
#	Creation time:	15. 06. 2019 20:42

#	Modifying user name:	WinNT
#	Modification time:	15. 06. 2019 20:42

#	Program:	/corina/corina34_cracker 3.40 0067  02.08.2006

@<TRIPOS>MOLECULE
ASD03540127
  53   57    0    0    0
SMALL
NO_CHARGES


@<TRIPOS>ATOM
   1 C1            -0.0161     1.3365     0.0094 C.2     
   2 N2             0.0021    -0.0041     0.0020 N.am    
   3 C3             1.1931    -0.7075    -0.0132 C.2     
   4 C4             2.3928    -0.0051    -0.0209 C.2     
   5 C5             2.3194     1.4734    -0.0115 C.2     
   6 N6             1.1110     2.0661     0.0025 N.am    
   7 C7             3.5129    -0.8381    -0.0361 C.2     
   8 C8             3.2256    -2.1516    -0.0404 C.2     
   9 S9             1.4874    -2.3902    -0.0250 S.3     
  10 C10            4.2183    -3.2259    -0.0565 C.2     
  11 O11            5.4048    -2.9577    -0.0671 O.2     
  12 O12            3.8179    -4.5143    -0.0595 O.3     
  13 C13            1.0243     3.5285     0.0113 C.3     
  14 C14            1.0082     4.0223     1.4350 C.ar    
  15 C15            2.1979     4.3191     2.0749 C.ar    
  16 C16            2.1889     4.7712     3.3790 C.ar    
  17 C17            0.9786     4.9289     4.0505 C.ar    
  18 C18           -0.2168     4.6289     3.4011 C.ar    
  19 C19           -0.1966     4.1824     2.0952 C.ar    
  20 N20           -0.1010     5.6096     6.2070 N.2     
  21 N21            0.3017     6.0333     7.3554 N.pl3   
  22 N22            1.5866     6.1128     7.3534 N.2     
  23 N23            2.0274     5.7399     6.2000 N.2     
  24 C24            0.9627     5.4144     5.4534 C.2     
  25 O25            3.3358     2.1426    -0.0175 O.2     
  26 O26           -1.0880     1.9101     0.0175 O.2     
  27 C27            4.8413    -5.5116    -0.0754 C.3     
  28 C28            4.2094    -6.8798    -0.0765 C.ar    
  29 C29            3.9078    -7.4998    -1.2738 C.ar    
  30 C30            3.3262    -8.7591    -1.2741 C.ar    
  31 C31            3.0488    -9.3929    -0.0713 C.ar    
  32 C32            3.3522    -8.7688     1.1229 C.ar    
  33 C33            3.9372    -7.5157     1.1204 C.ar    
  34 O34            3.0281    -9.3709    -2.4504 O.3     
  35 C35            2.4306   -10.6668    -2.3746 C.3     
  36 H36           -0.8370    -0.4906     0.0078 H       
  37 H37            4.5244    -0.4597    -0.0438 H       
  38 H38            1.8863     3.9467    -0.5086 H       
  39 H39            0.1095     3.8412    -0.4921 H       
  40 H40            3.1357     4.1965     1.5534 H       
  41 H41            3.1184     5.0020     3.8781 H       
  42 H42           -1.1578     4.7494     3.9172 H       
  43 H43           -1.1230     3.9534     1.5895 H       
  44 H44           -0.2731     6.2576     8.1039 H       
  45 H45            5.4510    -5.3923    -0.9710 H       
  46 H46            5.4691    -5.4021     0.8089 H       
  47 H47            4.1243    -7.0043    -2.2086 H       
  48 H48            2.5956   -10.3732    -0.0690 H       
  49 H49            3.1362    -9.2616     2.0593 H       
  50 H50            4.1781    -7.0314     2.0552 H       
  51 H51            2.2447   -11.0406    -3.3814 H       
  52 H52            3.1036   -11.3472    -1.8529 H       
  53 H53            1.4878   -10.6009    -1.8316 H       
@<TRIPOS>BOND
   1    1    2 am
   2    1    6 am
   3    1   26 2
   4    2    3 1
   5    2   36 1
   6    3    4 2
   7    3    9 1
   8    4    5 1
   9    4    7 1
  10    5    6 am
  11    5   25 2
  12    6   13 1
  13    7    8 2
  14    7   37 1
  15    8    9 1
  16    8   10 1
  17   10   11 2
  18   10   12 1
  19   12   27 1
  20   13   14 1
  21   13   38 1
  22   13   39 1
  23   14   15 ar
  24   14   19 ar
  25   15   16 ar
  26   15   40 1
  27   16   17 ar
  28   16   41 1
  29   17   18 ar
  30   17   24 1
  31   18   19 ar
  32   18   42 1
  33   19   43 1
  34   20   21 1
  35   20   24 2
  36   21   22 1
  37   21   44 1
  38   22   23 2
  39   23   24 1
  40   27   28 1
  41   27   45 1
  42   27   46 1
  43   28   29 ar
  44   28   33 ar
  45   29   30 ar
  46   29   47 1
  47   30   31 ar
  48   30   34 1
  49   31   32 ar
  50   31   48 1
  51   32   33 ar
  52   32   49 1
  53   33   50 1
  54   34   35 1
  55   35   51 1
  56   35   52 1
  57   35   53 1

#	End of record

