#	Name: ASD03430528
#	Creating user name:	WinNT
#	Creation time:	15. 06. 2019 20:41

#	Modifying user name:	WinNT
#	Modification time:	15. 06. 2019 20:41

#	Program:	/corina/corina34_cracker 3.40 0067  02.08.2006

@<TRIPOS>MOLECULE
ASD03430528
  47   52    0    0    0
SMALL
NO_CHARGES


@<TRIPOS>ATOM
   1 O1            -0.0164     1.3592     0.0095 O.3     
   2 C2             0.0021    -0.0041     0.0020 C.ar    
   3 C3             1.2409    -0.4886    -0.4112 C.ar    
   4 C4             2.1060     0.7135    -0.6765 C.3     
   5 C5             1.3352     1.8562    -0.0007 C.3     
   6 O6            -1.6199    -3.3133     0.5186 O.3     
   7 C7            -0.8505    -4.5130     0.7054 C.3     
   8 C8             0.4098    -4.2490    -0.1522 C.3     
   9 C9             0.4644    -2.7339    -0.1686 C.ar    
  10 C10           -0.7790    -2.2762     0.2493 C.ar    
  11 C11            1.4649    -1.8459    -0.4986 C.ar    
  12 C12           -1.0010    -0.9064     0.3338 C.ar    
  13 N13            4.3455     0.7063    -1.1341 N.am    
  14 C14            3.4866     0.5584    -0.1059 C.2     
  15 C15            2.3072     0.9636    -2.1415 C.ar    
  16 C16            1.4489     1.1825    -3.1970 C.ar    
  17 C17            1.9535     1.3882    -4.4697 C.ar    
  18 C18            3.3203     1.3733    -4.6788 C.ar    
  19 C19            4.1833     1.1540    -3.6254 C.ar    
  20 C20            3.6850     0.9457    -2.3415 C.ar    
  21 O21            3.7725     0.3429     1.0528 O.2     
  22 C22            5.8022     0.6263    -1.0007 C.3     
  23 O23            6.3711    -1.7270    -0.2388 O.3     
  24 C24            6.2475    -0.7993    -1.2021 C.2     
  25 C25            6.5880    -1.3586    -2.3771 C.2     
  26 C26            6.9372    -2.7014    -2.1056 C.2     
  27 C27            6.7891    -2.8825    -0.7810 C.2     
  28 C28            7.0482    -4.1644    -0.0323 C.3     
  29 F29            8.3816    -4.1966     0.3898 F       
  30 F30            6.2046    -4.2325     1.0817 F       
  31 F31            6.7988    -5.2542    -0.8733 F       
  32 Br32          -0.4196     1.2015    -2.9071 Br      
  33 H33            1.4065     2.7715    -0.5883 H       
  34 H34            1.6956     2.0182     1.0151 H       
  35 H35           -0.5837    -4.6412     1.7545 H       
  36 H36           -1.3944    -5.3821     0.3352 H       
  37 H37            1.2983    -4.6659     0.3221 H       
  38 H38            0.2854    -4.6454    -1.1599 H       
  39 H39            2.4259    -2.2138    -0.8266 H       
  40 H40           -1.9628    -0.5399     0.6609 H       
  41 H41            1.2811     1.5602    -5.2972 H       
  42 H42            3.7139     1.5338    -5.6717 H       
  43 H43            5.2496     1.1433    -3.7969 H       
  44 H44            6.2713     1.2628    -1.7509 H       
  45 H45            6.0949     0.9612    -0.0056 H       
  46 H46            6.5932    -0.8748    -3.3426 H       
  47 H47            7.2604    -3.4402    -2.8241 H       
@<TRIPOS>BOND
   1    1    2 1
   2    1    5 1
   3    2    3 ar
   4    2   12 ar
   5    3    4 1
   6    3   11 ar
   7    4    5 1
   8    4   14 1
   9    4   15 1
  10    5   33 1
  11    5   34 1
  12    6    7 1
  13    6   10 1
  14    7    8 1
  15    7   35 1
  16    7   36 1
  17    8    9 1
  18    8   37 1
  19    8   38 1
  20    9   10 ar
  21    9   11 ar
  22   10   12 ar
  23   11   39 1
  24   12   40 1
  25   13   14 am
  26   13   20 1
  27   13   22 1
  28   14   21 2
  29   15   16 ar
  30   15   20 ar
  31   16   17 ar
  32   16   32 1
  33   17   18 ar
  34   17   41 1
  35   18   19 ar
  36   18   42 1
  37   19   20 ar
  38   19   43 1
  39   22   24 1
  40   22   44 1
  41   22   45 1
  42   23   24 1
  43   23   27 1
  44   24   25 2
  45   25   26 1
  46   25   46 1
  47   26   27 2
  48   26   47 1
  49   27   28 1
  50   28   29 1
  51   28   30 1
  52   28   31 1

#	End of record

