#	Name: ASD01882882
#	Creating user name:	WinNT
#	Creation time:	15. 06. 2019 19:45

#	Modifying user name:	WinNT
#	Modification time:	15. 06. 2019 19:45

#	Program:	/corina/corina34_cracker 3.40 0067  02.08.2006

@<TRIPOS>MOLECULE
ASD01882882
  28   27    0    0    0
SMALL
NO_CHARGES


@<TRIPOS>ATOM
   1 C1            -0.0184     1.5028     0.0103 C.2     
   2 C2             0.0021    -0.0041     0.0020 C.3     
   3 C3             1.4295    -0.4870    -0.0142 C.2     
   4 C4             1.7747    -1.7956    -0.6771 C.3     
   5 C5             3.2785    -2.0491    -0.5530 C.3     
   6 O6             1.0197     2.1211     0.0037 O.2     
   7 O7            -1.1898     2.1580     0.0194 O.3     
   8 O8             2.2967     0.1746     0.5040 O.2     
   9 C9            -0.7002    -0.5305     1.2552 C.3     
  10 C10           -2.1803    -0.1456     1.2101 C.3     
  11 C11           -1.1335     3.6089     0.0270 C.3     
  12 C12           -2.5551     4.1744     0.0369 C.3     
  13 H13           -0.5153    -0.3696    -0.8850 H       
  14 H14            1.2287    -2.6042    -0.1913 H       
  15 H15            1.4992    -1.7529    -1.7309 H       
  16 H16            3.5540    -2.0917     0.5007 H       
  17 H17            3.5282    -2.9955    -1.0325 H       
  18 H18            3.8246    -1.2404    -1.0389 H       
  19 H19           -0.6082    -1.6159     1.2944 H       
  20 H20           -0.2382    -0.0945     2.1409 H       
  21 H21           -2.2724     0.9398     1.1709 H       
  22 H22           -2.6423    -0.5816     0.3244 H       
  23 H23           -2.6807    -0.5206     2.1029 H       
  24 H24           -0.6017     3.9472     0.9164 H       
  25 H25           -0.6102     3.9569    -0.8636 H       
  26 H26           -3.0869     3.8361    -0.8525 H       
  27 H27           -3.0784     3.8265     0.9275 H       
  28 H28           -2.5128     5.2636     0.0426 H       
@<TRIPOS>BOND
   1    1    2 1
   2    1    6 2
   3    1    7 1
   4    2    3 1
   5    2    9 1
   6    2   13 1
   7    3    4 1
   8    3    8 2
   9    4    5 1
  10    4   14 1
  11    4   15 1
  12    5   16 1
  13    5   17 1
  14    5   18 1
  15    7   11 1
  16    9   10 1
  17    9   19 1
  18    9   20 1
  19   10   21 1
  20   10   22 1
  21   10   23 1
  22   11   12 1
  23   11   24 1
  24   11   25 1
  25   12   26 1
  26   12   27 1
  27   12   28 1

#	End of record

