#	Name: ASD01914050
#	Creating user name:	WinNT
#	Creation time:	15. 06. 2019 20:02

#	Modifying user name:	WinNT
#	Modification time:	15. 06. 2019 20:02

#	Program:	/corina/corina34_cracker 3.40 0067  02.08.2006

@<TRIPOS>MOLECULE
ASD01914050
  39   41    0    0    0
SMALL
NO_CHARGES


@<TRIPOS>ATOM
   1 C1            -0.0162     1.3756    -0.0474 C.ar    
   2 C2             0.0030    -0.0069    -0.0581 C.ar    
   3 C3             1.2085    -0.6839    -0.0690 C.ar    
   4 C4             2.3807     1.4071    -0.0586 C.ar    
   5 C5             1.1698     2.0840    -0.0476 C.ar    
   6 O6             3.5488     2.1017    -0.0584 O.3     
   7 C7             4.7572     1.3390    -0.0700 C.3     
   8 C8             5.9404     2.2723    -0.0679 C.ar    
   9 N9             7.1612     1.7723    -0.0775 N.ar    
  10 C10            8.2287     2.5435    -0.0762 C.ar    
  11 C11            8.1003     3.9329    -0.0641 C.ar    
  12 C12            6.8170     4.4934    -0.0538 C.ar    
  13 C13            5.7285     3.6395    -0.0617 C.ar    
  14 C14            9.2985     4.7983    -0.0617 C.2     
  15 N15           10.5282     4.2468    -0.0712 N.am    
  16 O16            9.1748     6.0076    -0.0511 O.2     
  17 C17            2.3973     0.0199    -0.0692 C.ar    
  18 C18           11.6593     5.0617    -0.1818 C.ar    
  19 C19           12.8300     4.7210     0.4830 C.ar    
  20 C20           13.8989     6.6731    -0.4004 C.ar    
  21 C21           12.7354     7.0133    -1.0688 C.ar    
  22 C22           11.6157     6.2104    -0.9614 C.ar    
  23 C23           13.9460     5.5275     0.3718 C.ar    
  24 Cl24          12.6808     8.4529    -2.0375 Cl      
  25 H25           -0.9591     1.9021    -0.0434 H       
  26 H26           -0.9253    -0.5589    -0.0575 H       
  27 H27            1.2209    -1.7638    -0.0769 H       
  28 H28            1.1543     3.1638    -0.0397 H       
  29 H29            4.7942     0.7035     0.8148 H       
  30 H30            4.7861     0.7176    -0.9651 H       
  31 H31            9.2119     2.0967    -0.0843 H       
  32 H32            6.6806     5.5647    -0.0439 H       
  33 H33            4.7239     4.0360    -0.0542 H       
  34 H34           10.6287     3.2845    -0.0014 H       
  35 H35            3.3387    -0.5093    -0.0777 H       
  36 H36           12.8678     3.8264     1.0868 H       
  37 H37           14.7729     7.3019    -0.4857 H       
  38 H38           10.7081     6.4757    -1.4831 H       
  39 H39           14.8564     5.2628     0.8890 H       
@<TRIPOS>BOND
   1    1    2 ar
   2    1    5 ar
   3    1   25 1
   4    2    3 ar
   5    2   26 1
   6    3   17 ar
   7    3   27 1
   8    4    5 ar
   9    4    6 1
  10    4   17 ar
  11    5   28 1
  12    6    7 1
  13    7    8 1
  14    7   29 1
  15    7   30 1
  16    8    9 ar
  17    8   13 ar
  18    9   10 ar
  19   10   11 ar
  20   10   31 1
  21   11   12 ar
  22   11   14 1
  23   12   13 ar
  24   12   32 1
  25   13   33 1
  26   14   15 am
  27   14   16 2
  28   15   18 1
  29   15   34 1
  30   17   35 1
  31   18   19 ar
  32   18   22 ar
  33   19   23 ar
  34   19   36 1
  35   20   21 ar
  36   20   23 ar
  37   20   37 1
  38   21   22 ar
  39   21   24 1
  40   22   38 1
  41   23   39 1

#	End of record

