#	Name: ASD07301467
#	Creating user name:	WinNT
#	Creation time:	15. 06. 2019 21:11

#	Modifying user name:	WinNT
#	Modification time:	15. 06. 2019 21:11

#	Program:	/corina/corina34_cracker 3.40 0067  02.08.2006

@<TRIPOS>MOLECULE
ASD07301467
  51   54    0    0    0
SMALL
NO_CHARGES


@<TRIPOS>ATOM
   1 C1            -0.1679     1.4248    -0.0002 C.ar    
   2 C2            -0.1910     0.0267     0.0037 C.ar    
   3 C3             1.0053    -0.6728     0.0554 C.ar    
   4 C4             2.1876     0.0517     0.1016 C.ar    
   5 C5             2.1362     1.4329     0.0947 C.ar    
   6 N6             0.9842     2.0732     0.0454 N.ar    
   7 C7            -2.2847     0.7563    -0.0769 C.2     
   8 N8            -1.4924     1.8441    -0.0510 N.am    
   9 N9            -1.5276    -0.3571    -0.0500 N.am    
  10 O10           -3.5005     0.7760    -0.1219 O.2     
  11 C11           -2.0256    -1.7348    -0.0656 C.3     
  12 C12           -2.8043    -2.0103     1.2222 C.3     
  13 C13           -2.9477    -1.9302    -1.2708 C.3     
  14 C14            1.0207    -2.1797     0.0618 C.3     
  15 C15           -1.9297     3.1771    -0.0719 C.ar    
  16 C16           -3.2875     3.4617    -0.1235 C.ar    
  17 C17           -3.7174     4.7738    -0.1436 C.ar    
  18 C18           -2.7927     5.8075    -0.1121 C.ar    
  19 C19           -1.4358     5.5236    -0.0610 C.ar    
  20 C20           -1.0051     4.2119    -0.0351 C.ar    
  21 O21           -3.2166     7.0992    -0.1319 O.3     
  22 C22           -2.2099     8.1129    -0.0973 C.3     
  23 C23           -2.8631     9.4707    -0.1259 C.ar    
  24 C24           -3.2074    10.0970     1.0574 C.ar    
  25 C25           -3.8066    11.3425     1.0312 C.ar    
  26 C26           -4.0611    11.9618    -0.1782 C.ar    
  27 C27           -3.7159    11.3358    -1.3614 C.ar    
  28 C28           -3.1128    10.0923    -1.3351 C.ar    
  29 H29            3.1386    -0.4585     0.1429 H       
  30 H30            3.0559     1.9979     0.1309 H       
  31 H31           -1.1844    -2.4244    -0.1362 H       
  32 H32           -3.6455    -1.3207     1.2928 H       
  33 H33           -3.1748    -3.0354     1.2106 H       
  34 H34           -2.1474    -1.8712     2.0808 H       
  35 H35           -3.7888    -1.2406    -1.2003 H       
  36 H36           -2.3929    -1.7339    -2.1883 H       
  37 H37           -3.3182    -2.9552    -1.2825 H       
  38 H38            0.9413    -2.5482    -0.9609 H       
  39 H39            1.9530    -2.5317     0.5035 H       
  40 H40            0.1789    -2.5492     0.6475 H       
  41 H41           -4.0074     2.6570    -0.1483 H       
  42 H42           -4.7737     4.9953    -0.1841 H       
  43 H43           -0.7164     6.3287    -0.0373 H       
  44 H44            0.0512     3.9910     0.0095 H       
  45 H45           -1.6230     8.0111     0.8155 H       
  46 H46           -1.5565     8.0057    -0.9632 H       
  47 H47           -3.0086     9.6132     2.0022 H       
  48 H48           -4.0762    11.8315     1.9556 H       
  49 H49           -4.5299    12.9345    -0.1987 H       
  50 H50           -3.9151    11.8195    -2.3063 H       
  51 H51           -2.8398     9.6048    -2.2593 H       
@<TRIPOS>BOND
   1    1    2 ar
   2    1    6 ar
   3    1    8 1
   4    2    3 ar
   5    2    9 1
   6    3    4 ar
   7    3   14 1
   8    4    5 ar
   9    4   29 1
  10    5    6 ar
  11    5   30 1
  12    7    8 am
  13    7    9 am
  14    7   10 2
  15    8   15 1
  16    9   11 1
  17   11   12 1
  18   11   13 1
  19   11   31 1
  20   12   32 1
  21   12   33 1
  22   12   34 1
  23   13   35 1
  24   13   36 1
  25   13   37 1
  26   14   38 1
  27   14   39 1
  28   14   40 1
  29   15   16 ar
  30   15   20 ar
  31   16   17 ar
  32   16   41 1
  33   17   18 ar
  34   17   42 1
  35   18   19 ar
  36   18   21 1
  37   19   20 ar
  38   19   43 1
  39   20   44 1
  40   21   22 1
  41   22   23 1
  42   22   45 1
  43   22   46 1
  44   23   24 ar
  45   23   28 ar
  46   24   25 ar
  47   24   47 1
  48   25   26 ar
  49   25   48 1
  50   26   27 ar
  51   26   49 1
  52   27   28 ar
  53   27   50 1
  54   28   51 1

#	End of record

