#	Name: ASD01028818
#	Creating user name:	WinNT
#	Creation time:	15. 06. 2019 18:58

#	Modifying user name:	WinNT
#	Modification time:	15. 06. 2019 18:58

#	Program:	/corina/corina34_cracker 3.40 0067  02.08.2006

@<TRIPOS>MOLECULE
ASD01028818
  30   30    0    0    0
SMALL
NO_CHARGES


@<TRIPOS>ATOM
   1 C1            -0.0184     1.5028     0.0103 C.2     
   2 C2             0.0021    -0.0041     0.0020 C.3     
   3 O3             1.0197     2.1211     0.0037 O.2     
   4 O4            -1.1898     2.1580     0.0194 O.3     
   5 N5             1.3897    -0.4735    -0.0138 N.pl3   
   6 N6             2.1780    -4.5535    -0.0441 N.ar    
   7 C7             0.9383    -4.1216    -0.0295 C.ar    
   8 C8             0.6374    -2.7661    -0.0189 C.ar    
   9 C9             1.6617    -1.8339    -0.0237 C.ar    
  10 C10            2.9959    -2.3113    -0.0394 C.ar    
  11 N11            4.0276    -1.4668    -0.0453 N.ar    
  12 C12            5.2655    -1.8968    -0.0602 C.ar    
  13 C13            5.5637    -3.2632    -0.0712 C.ar    
  14 C14            4.5383    -4.1871    -0.0659 C.ar    
  15 C15            3.2149    -3.7092    -0.0494 C.ar    
  16 O16            6.8569    -3.6792    -0.0875 O.3     
  17 C17            7.8644    -2.6658    -0.0926 C.3     
  18 H18           -0.4983    -0.3791     0.8948 H       
  19 H19           -0.5153    -0.3696    -0.8850 H       
  20 H20           -1.1523     3.1243     0.0245 H       
  21 H21            2.1184     0.1668    -0.0173 H       
  22 H22            0.1313    -4.8394    -0.0261 H       
  23 H23           -0.3920    -2.4397    -0.0073 H       
  24 H24            6.0733    -1.1800    -0.0645 H       
  25 H25            4.7458    -5.2469    -0.0745 H       
  26 H26            7.7466    -2.0408    -0.9778 H       
  27 H27            7.7658    -2.0509     0.8021 H       
  28 H28            8.8493    -3.1326    -0.1058 H       
  29 Cl29          13.8493     8.1243     5.8948 Cl      
  30 H30           13.8493     9.4943     5.8948 H       
@<TRIPOS>BOND
   1    1    2 1
   2    1    3 2
   3    1    4 1
   4    2    5 1
   5    2   18 1
   6    2   19 1
   7    4   20 1
   8    5    9 1
   9    5   21 1
  10    6    7 ar
  11    6   15 ar
  12    7    8 ar
  13    7   22 1
  14    8    9 ar
  15    8   23 1
  16    9   10 ar
  17   10   11 ar
  18   10   15 ar
  19   11   12 ar
  20   12   13 ar
  21   12   24 1
  22   13   14 ar
  23   13   16 1
  24   14   15 ar
  25   14   25 1
  26   16   17 1
  27   17   26 1
  28   17   27 1
  29   17   28 1
  30   29   30 1

#	End of record

