#	Name: ASD01411150
#	Creating user name:	WinNT
#	Creation time:	15. 06. 2019 19:19

#	Modifying user name:	WinNT
#	Modification time:	15. 06. 2019 19:19

#	Program:	/corina/corina34_cracker 3.40 0067  02.08.2006

@<TRIPOS>MOLECULE
ASD01411150
  50   53    0    0    0
SMALL
NO_CHARGES


@<TRIPOS>ATOM
   1 C1            -0.0166     1.3732     0.0096 C.ar    
   2 C2             0.0021    -0.0041     0.0020 C.ar    
   3 C3             1.2222    -0.6870    -0.0133 C.ar    
   4 C4             2.4223     0.0378    -0.0210 C.ar    
   5 C5             2.3856     1.4307    -0.0131 C.ar    
   6 C6             1.1690     2.0904     0.0021 C.ar    
   7 C7             1.2465    -2.1606    -0.0210 C.2     
   8 O8             3.5448     2.1417    -0.0200 O.3     
   9 C9             3.4321     3.5662    -0.0113 C.3     
  10 C10            4.8089     4.1791    -0.0206 C.ar    
  11 C11            5.4534     4.4484     1.1723 C.ar    
  12 C12            5.4291     4.4665    -1.2222 C.ar    
  13 C13            6.6917     5.0285    -1.2315 C.ar    
  14 C14            7.3350     5.3035    -0.0378 C.ar    
  15 C15            6.7161     5.0104     1.1643 C.ar    
  16 Cl16           8.9209     6.0095    -0.0486 Cl      
  17 O17            0.0907    -2.8535    -0.0132 O.3     
  18 O18            2.3086    -2.7507    -0.0344 O.2     
  19 N19            3.6446    -0.6309    -0.0358 N.am    
  20 C20            4.2744    -0.9756    -1.3079 C.3     
  21 C21            4.2507    -0.9560     1.1244 C.2     
  22 C22            5.3653     0.0232    -1.6722 C.3     
  23 C23            5.6077    -1.5419     1.0674 C.ar    
  24 C24            6.2392     0.3368    -0.4593 C.3     
  25 C25            5.9202    -2.6937     1.7863 C.ar    
  26 C26            6.5823    -0.9269     0.2775 C.ar    
  27 C27            7.8449    -1.4725     0.1970 C.ar    
  28 C28            8.1489    -2.6200     0.9092 C.ar    
  29 C29            7.1912    -3.2261     1.7031 C.ar    
  30 O30            3.6959    -0.7717     2.1902 O.2     
  31 H31           -0.9609     1.8972     0.0169 H       
  32 H32           -0.9259    -0.5566     0.0083 H       
  33 H33            1.1436     3.1701     0.0078 H       
  34 H34            2.8831     3.8927    -0.8945 H       
  35 H35            2.8995     3.8831     0.8854 H       
  36 H36            4.9701     4.2199     2.1107 H       
  37 H37            4.9270     4.2514    -2.1540 H       
  38 H38            7.1763     5.2527    -2.1703 H       
  39 H39            7.2194     5.2211     2.0964 H       
  40 H40            0.1572    -3.8182    -0.0187 H       
  41 H41            4.7124    -1.9707    -1.2315 H       
  42 H42            3.5171    -0.9791    -2.0919 H       
  43 H43            5.9866    -0.3967    -2.4632 H       
  44 H44            4.9040     0.9438    -2.0298 H       
  45 H45            7.1580     0.8195    -0.7921 H       
  46 H46            5.7020     1.0114     0.2073 H       
  47 H47            5.1723    -3.1675     2.4047 H       
  48 H48            8.5969    -1.0054    -0.4216 H       
  49 H49            9.1397    -3.0449     0.8447 H       
  50 H50            7.4388    -4.1181     2.2594 H       
@<TRIPOS>BOND
   1    1    2 ar
   2    1    6 ar
   3    1   31 1
   4    2    3 ar
   5    2   32 1
   6    3    4 ar
   7    3    7 1
   8    4    5 ar
   9    4   19 1
  10    5    6 ar
  11    5    8 1
  12    6   33 1
  13    7   17 1
  14    7   18 2
  15    8    9 1
  16    9   10 1
  17    9   34 1
  18    9   35 1
  19   10   12 ar
  20   10   11 ar
  21   11   15 ar
  22   11   36 1
  23   12   13 ar
  24   12   37 1
  25   13   14 ar
  26   13   38 1
  27   14   15 ar
  28   14   16 1
  29   15   39 1
  30   17   40 1
  31   19   20 1
  32   19   21 am
  33   20   22 1
  34   20   41 1
  35   20   42 1
  36   21   23 1
  37   21   30 2
  38   22   24 1
  39   22   43 1
  40   22   44 1
  41   23   26 ar
  42   23   25 ar
  43   24   26 1
  44   24   45 1
  45   24   46 1
  46   25   29 ar
  47   25   47 1
  48   26   27 ar
  49   27   28 ar
  50   27   48 1
  51   28   29 ar
  52   28   49 1
  53   29   50 1

#	End of record

