#	Name: ASD07930477
#	Creating user name:	WinNT
#	Creation time:	15. 06. 2019 21:12

#	Modifying user name:	WinNT
#	Modification time:	15. 06. 2019 21:12

#	Program:	/corina/corina34_cracker 3.40 0067  02.08.2006

@<TRIPOS>MOLECULE
ASD07930477
  48   50    0    0    0
SMALL
NO_CHARGES


@<TRIPOS>ATOM
   1 C1            -0.0343     1.4581     0.0425 C.3     
   2 N2             0.7953    -0.4133    -2.1302 N.2     
   3 N3            -0.8904    -1.7835    -1.2685 N.pl3   
   4 C4            -0.9150    -2.8271    -0.2382 C.3     
   5 C5            -1.2300    -2.1885     1.1215 C.3     
   6 S6             0.0061    -0.8913     1.4435 S.o2    
   7 N7            -0.0141    -0.0067     0.0315 N.am    
   8 C8            -0.0113    -0.7260    -1.1551 C.2     
   9 C9             0.4500    -3.5153    -0.1755 C.3     
  10 C10           -1.9765    -3.8423    -0.5755 C.ar    
  11 C11           -2.8068    -3.6380    -1.6597 C.ar    
  12 C12           -3.7850    -4.5740    -1.9701 C.ar    
  13 C13           -3.9256    -5.7134    -1.1890 C.ar    
  14 C14           -3.0929    -5.9137    -0.1053 C.ar    
  15 C15           -2.1147    -4.9822     0.1989 C.ar    
  16 N16           -4.6278    -4.3688    -3.0681 N.am    
  17 C17           -5.0478    -5.4192    -3.8008 C.2     
  18 O18           -4.6184    -6.5325    -3.5690 O.2     
  19 O19           -0.4577     0.0117     2.4378 O.2     
  20 O20            1.3140    -1.4440     1.5004 O.2     
  21 F21           -1.3013    -5.1800     1.2593 F       
  22 C22           -6.0314    -5.2171    -4.8875 C.ar    
  23 C23           -6.4628    -6.3085    -5.6431 C.ar    
  24 C24           -7.3873    -6.1008    -6.6595 C.ar    
  25 C25           -7.8451    -4.8132    -6.8823 C.ar    
  26 C26           -7.3724    -3.7764    -6.0919 C.ar    
  27 N27           -6.5015    -3.9994    -5.1331 N.ar    
  28 F28           -5.9884    -7.5480    -5.3904 F       
  29 C29           -8.8475    -4.5409    -7.9740 C.3     
  30 F30          -10.1425    -4.6591    -7.4581 F       
  31 F31           -8.6587    -3.2458    -8.4681 F       
  32 F32           -8.6720    -5.4652    -9.0095 F       
  33 H33            0.9882     1.8357     0.0394 H       
  34 H34           -0.5582     1.8209    -0.8419 H       
  35 H35           -0.5480     1.8078     0.9380 H       
  36 H36            1.4070     0.3331    -2.0331 H       
  37 H37           -1.4884    -1.8387    -2.0302 H       
  38 H38           -2.2270    -1.7484     1.0987 H       
  39 H39           -1.1800    -2.9460     1.9037 H       
  40 H40            1.2165    -2.7804     0.0704 H       
  41 H41            0.4311    -4.2908     0.5903 H       
  42 H42            0.6749    -3.9651    -1.1426 H       
  43 H43           -2.6960    -2.7510    -2.2657 H       
  44 H44           -4.6858    -6.4422    -1.4284 H       
  45 H45           -3.2021    -6.7996     0.5027 H       
  46 H46           -4.9098    -3.4707    -3.3019 H       
  47 H47           -7.7403    -6.9247    -7.2620 H       
  48 H48           -7.7282    -2.7714    -6.2642 H       
@<TRIPOS>BOND
   1    1    7 1
   2    1   33 1
   3    1   34 1
   4    1   35 1
   5    2    8 2
   6    2   36 1
   7    3    4 1
   8    3    8 1
   9    3   37 1
  10    4    5 1
  11    4    9 1
  12    4   10 1
  13    5    6 1
  14    5   38 1
  15    5   39 1
  16    6    7 am
  17    6   19 2
  18    6   20 2
  19    7    8 1
  20    9   40 1
  21    9   41 1
  22    9   42 1
  23   10   11 ar
  24   10   15 ar
  25   11   12 ar
  26   11   43 1
  27   12   13 ar
  28   12   16 1
  29   13   14 ar
  30   13   44 1
  31   14   15 ar
  32   14   45 1
  33   15   21 1
  34   16   17 am
  35   16   46 1
  36   17   18 2
  37   17   22 1
  38   22   23 ar
  39   22   27 ar
  40   23   24 ar
  41   23   28 1
  42   24   25 ar
  43   24   47 1
  44   25   26 ar
  45   25   29 1
  46   26   27 ar
  47   26   48 1
  48   29   30 1
  49   29   31 1
  50   29   32 1

#	End of record

