#	Name: ASD01813234
#	Creating user name:	WinNT
#	Creation time:	15. 06. 2019 19:30

#	Modifying user name:	WinNT
#	Modification time:	15. 06. 2019 19:30

#	Program:	/corina/corina34_cracker 3.40 0067  02.08.2006

@<TRIPOS>MOLECULE
ASD01813234
  51   55    0    0    0
SMALL
NO_CHARGES


@<TRIPOS>ATOM
   1 C1            -0.0169     1.3972     0.0097 C.2     
   2 C2             0.0021    -0.0041     0.0020 C.2     
   3 C3             1.1986    -0.6593    -0.0129 C.2     
   4 C4             2.3918     0.0821    -0.0204 C.2     
   5 N5             2.3437     1.4497    -0.0122 N.am    
   6 C6             1.1421     2.0937     0.0024 C.2     
   7 C7             3.6227    -0.5889    -0.0356 C.2     
   8 C8             4.7877     0.1218    -0.0425 C.2     
   9 C9             4.7345     1.5280    -0.0346 C.2     
  10 C10            3.4812     2.1736    -0.0189 C.2     
  11 O11            3.4258     3.3917    -0.0123 O.2     
  12 C12            5.9703     2.3140    -0.0413 C.2     
  13 O13            5.9124     3.6618    -0.0337 O.3     
  14 O14            7.0487     1.7516    -0.0537 O.2     
  15 C15            3.6593    -2.0954    -0.0439 C.3     
  16 N16            3.7787    -2.5747    -1.4274 N.3     
  17 C17            4.0548    -4.0165    -1.4628 C.3     
  18 C18            4.0103    -4.5085    -2.9127 C.3     
  19 C19            5.0246    -3.7321    -3.7417 C.3     
  20 C20            4.7833    -2.2321    -3.6346 C.3     
  21 C21            4.8016    -1.8176    -2.1602 C.3     
  22 C22            6.4599    -4.0805    -3.3050 C.3     
  23 O23            6.8193    -5.1361    -4.2148 O.3     
  24 C24            6.1086    -4.9985    -5.3685 C.ar    
  25 C25            5.0001    -4.1796    -5.1837 C.ar    
  26 C26            6.3405    -5.5418    -6.6294 C.ar    
  27 C27            5.4771    -5.2758    -7.6714 C.ar    
  28 C28            4.3734    -4.4662    -7.4742 C.ar    
  29 C29            4.1375    -3.9189    -6.2259 C.ar    
  30 H30           -0.9605     1.9226     0.0170 H       
  31 H31           -0.9233    -0.5609     0.0082 H       
  32 H32            1.2282    -1.7389    -0.0187 H       
  33 H33            1.1156     3.1733     0.0087 H       
  34 H34            5.7393    -0.3889    -0.0536 H       
  35 H35            6.7544     4.1373    -0.0385 H       
  36 H36            4.5153    -2.4412     0.5356 H       
  37 H37            2.7412    -2.4836     0.3971 H       
  38 H38            5.0429    -4.2078    -1.0443 H       
  39 H39            3.3031    -4.5450    -0.8765 H       
  40 H40            4.2524    -5.5709    -2.9438 H       
  41 H41            3.0114    -4.3510    -3.3196 H       
  42 H42            5.5671    -1.6985    -4.1720 H       
  43 H43            3.8137    -1.9880    -4.0687 H       
  44 H44            4.5916    -0.7510    -2.0799 H       
  45 H45            5.7833    -2.0279    -1.7357 H       
  46 H46            7.1205    -3.2223    -3.4284 H       
  47 H47            6.4749    -4.4362    -2.2748 H       
  48 H48            7.2007    -6.1743    -6.7922 H       
  49 H49            5.6640    -5.7015    -8.6463 H       
  50 H50            3.6979    -4.2623    -8.2918 H       
  51 H51            3.2763    -3.2865    -6.0681 H       
@<TRIPOS>BOND
   1    1    2 1
   2    1    6 2
   3    1   30 1
   4    2    3 2
   5    2   31 1
   6    3    4 1
   7    3   32 1
   8    4    5 1
   9    4    7 2
  10    5    6 1
  11    5   10 am
  12    6   33 1
  13    7    8 1
  14    7   15 1
  15    8    9 2
  16    8   34 1
  17    9   10 1
  18    9   12 1
  19   10   11 2
  20   12   13 1
  21   12   14 2
  22   13   35 1
  23   15   16 1
  24   15   36 1
  25   15   37 1
  26   16   17 1
  27   16   21 1
  28   17   18 1
  29   17   38 1
  30   17   39 1
  31   18   19 1
  32   18   40 1
  33   18   41 1
  34   19   20 1
  35   19   22 1
  36   19   25 1
  37   20   21 1
  38   20   42 1
  39   20   43 1
  40   21   44 1
  41   21   45 1
  42   22   23 1
  43   22   46 1
  44   22   47 1
  45   23   24 1
  46   24   25 ar
  47   24   26 ar
  48   25   29 ar
  49   26   27 ar
  50   26   48 1
  51   27   28 ar
  52   27   49 1
  53   28   29 ar
  54   28   50 1
  55   29   51 1

#	End of record

