#	Name: ASD01028104
#	Creating user name:	WinNT
#	Creation time:	15. 06. 2019 18:56

#	Modifying user name:	WinNT
#	Modification time:	15. 06. 2019 18:56

#	Program:	/corina/corina34_cracker 3.40 0067  02.08.2006

@<TRIPOS>MOLECULE
ASD01028104
  26   28    0    0    0
SMALL
NO_CHARGES


@<TRIPOS>ATOM
   1 N1            -0.0180     1.4760     0.0102 N.pl3   
   2 C2             0.0021    -0.0041     0.0020 C.ar    
   3 C3             0.0229    -0.7013     1.1959 C.ar    
   4 C4             0.0251     0.0474     2.5038 C.3     
   5 C5            -0.0057    -0.6898    -1.2016 C.ar    
   6 C6             0.0132    -2.0824    -1.2057 C.ar    
   7 C7             0.0398    -2.7749    -0.0057 C.ar    
   8 C8             0.0412    -2.0833     1.1926 C.ar    
   9 O9            -0.0301    -0.2501    -2.4936 O.3     
  10 C10            0.3861    -1.3748    -3.2906 C.3     
  11 O11            0.0005    -2.5151    -2.5005 O.3     
  12 Br12           0.0649    -4.6657    -0.0058 Br      
  13 O13            1.0284     2.0993     0.0035 O.2     
  14 O14           -1.0810     2.0706     0.0184 O.2     
  15 O15           -0.3021    -0.8499     3.5730 O.3     
  16 C16            0.8083    -0.8435     4.4928 C.3     
  17 C17            1.5181     0.4965     4.1760 C.3     
  18 O18            1.3317     0.5967     2.7437 O.3     
  19 H19           -0.7073     0.8537     2.4653 H       
  20 H20            0.0623    -2.6242     2.1271 H       
  21 H21           -0.1342    -1.3789    -4.2484 H       
  22 H22            1.4657    -1.3598    -3.4400 H       
  23 H23            0.4547    -0.8577     5.5237 H       
  24 H24            1.4725    -1.6861     4.3006 H       
  25 H25            1.0340     1.3260     4.6915 H       
  26 H26            2.5772     0.4465     4.4291 H       
@<TRIPOS>BOND
   1    1    2 1
   2    1   13 2
   3    1   14 2
   4    2    3 ar
   5    2    5 ar
   6    3    4 1
   7    3    8 ar
   8    4   15 1
   9    4   18 1
  10    4   19 1
  11    5    6 ar
  12    5    9 1
  13    6    7 ar
  14    6   11 1
  15    7    8 ar
  16    7   12 1
  17    8   20 1
  18    9   10 1
  19   10   11 1
  20   10   21 1
  21   10   22 1
  22   15   16 1
  23   16   17 1
  24   16   23 1
  25   16   24 1
  26   17   18 1
  27   17   25 1
  28   17   26 1

#	End of record

