#	Name: ASD04840094
#	Creating user name:	WinNT
#	Creation time:	15. 06. 2019 20:52

#	Modifying user name:	WinNT
#	Modification time:	15. 06. 2019 20:52

#	Program:	/corina/corina34_cracker 3.40 0067  02.08.2006

@<TRIPOS>MOLECULE
ASD04840094
  50   53    0    0    0
SMALL
NO_CHARGES


@<TRIPOS>ATOM
   1 C1             0.1209     1.4968     0.1445 C.ar    
   2 C2             0.2284     0.0807     0.1293 C.ar    
   3 N3             2.5572     0.3458     0.4026 N.ar    
   4 C4             2.4049     1.6498     0.4108 C.ar    
   5 N5             1.2205     2.2214     0.2854 N.ar    
   6 C6            -0.7937    -0.9350    -0.0082 C.2     
   7 C7            -0.3383    -2.1880     0.0199 C.2     
   8 S8             1.4033    -2.2259     0.2199 S.3     
   9 C9             1.5058    -0.4721     0.2658 C.ar    
  10 N10           -1.1117     2.1095     0.0086 N.pl3   
  11 C11           -1.2248     3.5643     0.1384 C.3     
  12 P12           -1.4623     4.3049    -1.5104 P.3     
  13 O13           -1.4722     5.9097    -1.3815 O.3     
  14 O14           -0.2598     3.8518    -2.4804 O.3     
  15 O15           -2.7512     3.8473    -2.0757 O.2     
  16 C16           -1.1910    -3.3890    -0.1013 C.ar    
  17 C17           -0.8616    -4.3963    -1.0167 C.ar    
  18 C18           -1.6663    -5.5181    -1.1236 C.ar    
  19 C19           -2.7912    -5.6427    -0.3293 C.ar    
  20 C20           -3.1211    -4.6490     0.5769 C.ar    
  21 C21           -2.3245    -3.5275     0.6995 C.ar    
  22 C22           -3.6631    -6.8659    -0.4509 C.3     
  23 Cl23          -4.5364    -4.8173     1.5679 Cl      
  24 O24            0.2434    -4.2731    -1.7977 O.3     
  25 C25            0.5165    -5.3400    -2.7082 C.3     
  26 C26           -2.4041     3.9002     1.0145 C.ar    
  27 C27           -4.5677     4.5168     2.6214 C.ar    
  28 C28           -4.6216     3.4212     1.7801 C.ar    
  29 C29           -3.5398     3.1131     0.9764 C.ar    
  30 C30           -2.3479     4.9921     1.8604 C.ar    
  31 C31           -3.4296     5.3003     2.6640 C.ar    
  32 H32            3.2774     2.2763     0.5236 H       
  33 H33           -1.8409    -0.6973    -0.1237 H       
  34 H34           -1.9011     1.5758    -0.1727 H       
  35 H35           -0.3141     3.9610     0.5871 H       
  36 H36           -2.1725     6.2541    -0.8105 H       
  37 H37           -0.2405     2.9030    -2.6661 H       
  38 H38           -1.4151    -6.2967    -1.8286 H       
  39 H39           -2.5816    -2.7567     1.4109 H       
  40 H40           -3.3123    -7.6322     0.2404 H       
  41 H41           -4.6932    -6.6033    -0.2100 H       
  42 H42           -3.6143    -7.2469    -1.4709 H       
  43 H43            0.6533    -6.2669    -2.1513 H       
  44 H44           -0.3193    -5.4511    -3.3990 H       
  45 H45            1.4239    -5.1157    -3.2690 H       
  46 H46           -5.4128     4.7575     3.2492 H       
  47 H47           -5.5107     2.8091     1.7468 H       
  48 H48           -3.5822     2.2577     0.3185 H       
  49 H49           -1.4588     5.6042     1.8936 H       
  50 H50           -3.3876     6.1562     3.3212 H       
@<TRIPOS>BOND
   1    1    2 ar
   2    1    5 ar
   3    1   10 1
   4    2    9 ar
   5    2    6 1
   6    3    4 ar
   7    3    9 ar
   8    4    5 ar
   9    4   32 1
  10    6    7 2
  11    6   33 1
  12    7    8 1
  13    7   16 1
  14    8    9 1
  15   10   11 1
  16   10   34 1
  17   11   12 1
  18   11   26 1
  19   11   35 1
  20   12   13 1
  21   12   14 1
  22   12   15 2
  23   13   36 1
  24   14   37 1
  25   16   17 ar
  26   16   21 ar
  27   17   18 ar
  28   17   24 1
  29   18   19 ar
  30   18   38 1
  31   19   20 ar
  32   19   22 1
  33   20   21 ar
  34   20   23 1
  35   21   39 1
  36   22   40 1
  37   22   41 1
  38   22   42 1
  39   24   25 1
  40   25   43 1
  41   25   44 1
  42   25   45 1
  43   26   30 ar
  44   26   29 ar
  45   27   28 ar
  46   27   31 ar
  47   27   46 1
  48   28   29 ar
  49   28   47 1
  50   29   48 1
  51   30   31 ar
  52   30   49 1
  53   31   50 1

#	End of record

