#	Name: ASD01903166
#	Creating user name:	WinNT
#	Creation time:	15. 06. 2019 19:54

#	Modifying user name:	WinNT
#	Modification time:	15. 06. 2019 19:54

#	Program:	/corina/corina34_cracker 3.40 0067  02.08.2006

@<TRIPOS>MOLECULE
ASD01903166
  53   57    0    0    0
SMALL
NO_CHARGES


@<TRIPOS>ATOM
   1 C1             1.7376    -1.7185     2.0449 C.ar    
   2 C2             0.7294    -1.1872     1.2563 C.ar    
   3 C3             1.0031    -0.0948     0.4483 C.ar    
   4 N4             2.2035     0.4414     0.4214 N.ar    
   5 C5             3.1967    -0.0370     1.1611 C.ar    
   6 C6             2.9932    -1.1329     1.9963 C.ar    
   7 C7             4.5325     0.6001     1.0977 C.2     
   8 N8             4.7356     1.6608     0.2914 N.am    
   9 O9             5.4452     0.1663     1.7727 O.2     
  10 C10            5.9680     2.3213     0.3022 C.ar    
  11 C11            7.1423     1.6009     0.4792 C.ar    
  12 C12            8.3578     2.2564     0.4894 C.ar    
  13 C13            8.4067     3.6284     0.3236 C.ar    
  14 C14            7.2394     4.3487     0.1475 C.ar    
  15 C15            6.0211     3.6986     0.1301 C.ar    
  16 S16            9.9597     4.4607     0.3372 S.o2    
  17 O17            9.6898     5.8077     0.7006 O.2     
  18 O18           10.8560     3.6260     1.0576 O.2     
  19 N19           10.5091     4.4989    -1.2245 N.am    
  20 C20            9.7631     5.1403    -2.2094 C.ar    
  21 C21            9.7219     4.6219    -3.5116 C.ar    
  22 C22            8.9699     5.2738    -4.4901 C.ar    
  23 C23            8.2737     6.4206    -4.1723 C.ar    
  24 C24            8.3162     6.9304    -2.8851 C.ar    
  25 C25            9.0516     6.2931    -1.9056 C.ar    
  26 C26           10.4703     3.3933    -3.8459 C.2     
  27 N27           10.5012     2.8010    -5.0800 N.pl3   
  28 C28           11.3073     1.6834    -4.9767 C.ar    
  29 C29           11.7482     1.6391    -3.6423 C.ar    
  30 N30           11.2098     2.7086    -3.0068 N.2     
  31 C31           11.7127     0.7022    -5.8706 C.ar    
  32 C32           12.5460    -0.3101    -5.4430 C.ar    
  33 C33           12.9809    -0.3541    -4.1260 C.ar    
  34 C34           12.5927     0.6026    -3.2316 C.ar    
  35 H35            1.5483    -2.5666     2.6862 H       
  36 H36           -0.2598    -1.6204     1.2709 H       
  37 H37            0.2199     0.3215    -0.1678 H       
  38 H38            3.8022    -1.5212     2.5973 H       
  39 H39            4.0269     1.9660    -0.2963 H       
  40 H40            7.1048     0.5294     0.6092 H       
  41 H41            9.2712     1.6969     0.6274 H       
  42 H42            7.2810     5.4201     0.0186 H       
  43 H43            5.1098     4.2617    -0.0074 H       
  44 H44           11.3508     4.0743    -1.4531 H       
  45 H45            8.9338     4.8805    -5.4953 H       
  46 H46            7.6925     6.9241    -4.9307 H       
  47 H47            7.7679     7.8294    -2.6454 H       
  48 H48            9.0799     6.6963    -0.9041 H       
  49 H49           10.0426     3.1082    -5.8776 H       
  50 H50           11.3768     0.7311    -6.8966 H       
  51 H51           12.8620    -1.0740    -6.1379 H       
  52 H52           13.6330    -1.1529    -3.8049 H       
  53 H53           12.9371     0.5586    -2.2089 H       
@<TRIPOS>BOND
   1    1    2 ar
   2    1    6 ar
   3    1   35 1
   4    2    3 ar
   5    2   36 1
   6    3    4 ar
   7    3   37 1
   8    4    5 ar
   9    5    6 ar
  10    5    7 1
  11    6   38 1
  12    7    8 am
  13    7    9 2
  14    8   10 1
  15    8   39 1
  16   10   11 ar
  17   10   15 ar
  18   11   12 ar
  19   11   40 1
  20   12   13 ar
  21   12   41 1
  22   13   14 ar
  23   13   16 1
  24   14   15 ar
  25   14   42 1
  26   15   43 1
  27   16   17 2
  28   16   18 2
  29   16   19 am
  30   19   20 1
  31   19   44 1
  32   20   21 ar
  33   20   25 ar
  34   21   22 ar
  35   21   26 1
  36   22   23 ar
  37   22   45 1
  38   23   24 ar
  39   23   46 1
  40   24   25 ar
  41   24   47 1
  42   25   48 1
  43   26   27 1
  44   26   30 2
  45   27   28 1
  46   27   49 1
  47   28   29 ar
  48   28   31 ar
  49   29   30 1
  50   29   34 ar
  51   31   32 ar
  52   31   50 1
  53   32   33 ar
  54   32   51 1
  55   33   34 ar
  56   33   52 1
  57   34   53 1

#	End of record

