#	Name: ASD03330202
#	Creating user name:	WinNT
#	Creation time:	15. 06. 2019 20:36

#	Modifying user name:	WinNT
#	Modification time:	15. 06. 2019 20:36

#	Program:	/corina/corina34_cracker 3.40 0067  02.08.2006

@<TRIPOS>MOLECULE
ASD03330202
  55   57    0    0    0
SMALL
NO_CHARGES


@<TRIPOS>ATOM
   1 C1            -0.0864     1.1742     0.6091 C.ar    
   2 C2            -0.0744    -0.2937     0.4304 C.2     
   3 N3            -1.1625    -1.1100     0.4864 N.pl3   
   4 C4            -0.7282    -2.3837     0.2720 C.2     
   5 C5             0.6157    -2.3244     0.0872 C.2     
   6 N6             0.9872    -1.0277     0.1852 N.2     
   7 C7             1.5079    -3.4667    -0.1780 C.2     
   8 N8             2.8303    -3.2649    -0.3425 N.am    
   9 C9             0.5966     1.9963    -0.2910 C.ar    
  10 O10            1.0510    -4.5917    -0.2484 O.2     
  11 C11            3.7174    -4.4006    -0.6062 C.3     
  12 C12            3.7259    -4.7036    -2.1059 C.3     
  13 C13            5.1145    -4.0622    -0.1541 C.2     
  14 C14            4.1141    -3.4416    -2.8789 C.3     
  15 C15            0.5805     3.3675    -0.1178 C.ar    
  16 C16           -0.1100     3.9249     0.9441 C.ar    
  17 C17           -0.7885     3.1138     1.8389 C.ar    
  18 C18           -0.7846     1.7446     1.6742 C.ar    
  19 O19            5.4848    -2.9074    -0.1413 O.2     
  20 N20            5.9526    -5.0430     0.2361 N.am    
  21 C21            7.2706    -4.7068     0.7802 C.3     
  22 C22            4.7400    -5.8119    -2.3965 C.3     
  23 C23           -2.5597    -0.7414     0.7274 C.3     
  24 C24           -3.4588    -1.8981     0.2770 C.3     
  25 C25           -2.9631    -3.2076     0.8971 C.3     
  26 C26           -1.6237    -3.5960     0.2561 C.3     
  27 C27            2.3323    -5.1603    -2.5419 C.3     
  28 F28            1.2711     1.4523    -1.3275 F       
  29 Cl29          -0.1255     5.6478     1.1560 Cl      
  30 H30            3.1947    -2.3677    -0.2864 H       
  31 H31            3.3607    -5.2745    -0.0610 H       
  32 H32            5.1070    -3.1163    -2.5683 H       
  33 H33            4.1202    -3.6575    -3.9473 H       
  34 H34            3.3917    -2.6521    -2.6719 H       
  35 H35            1.1080     4.0049    -0.8120 H       
  36 H36           -1.3254     3.5553     2.6655 H       
  37 H37           -1.3143     1.1143     2.3731 H       
  38 H38            5.6832    -5.9714     0.1566 H       
  39 H39            7.8415    -4.1539     0.0342 H       
  40 H40            7.1494    -4.0933     1.6730 H       
  41 H41            7.8016    -5.6231     1.0383 H       
  42 H42            4.4328    -6.7271    -1.8905 H       
  43 H43            4.7868    -5.9889    -3.4710 H       
  44 H44            5.7227    -5.5091    -2.0350 H       
  45 H45           -2.7102    -0.5542     1.7907 H       
  46 H46           -2.8047     0.1551     0.1579 H       
  47 H47           -4.4826    -1.7087     0.5995 H       
  48 H48           -3.4303    -1.9777    -0.8098 H       
  49 H49           -2.8279    -3.0738     1.9703 H       
  50 H50           -3.6947    -3.9953     0.7172 H       
  51 H51           -1.7876    -3.9194    -0.7719 H       
  52 H52           -1.1623    -4.4018     0.8270 H       
  53 H53            1.6099    -4.3708    -2.3349 H       
  54 H54            2.3384    -5.3762    -3.6103 H       
  55 H55            2.0558    -6.0594    -1.9912 H       
@<TRIPOS>BOND
   1    1    2 1
   2    1    9 ar
   3    1   18 ar
   4    2    3 1
   5    2    6 2
   6    3    4 1
   7    3   23 1
   8    4    5 2
   9    4   26 1
  10    5    6 1
  11    5    7 1
  12    7    8 am
  13    7   10 2
  14    8   11 1
  15    8   30 1
  16    9   15 ar
  17    9   28 1
  18   11   12 1
  19   11   13 1
  20   11   31 1
  21   12   14 1
  22   12   22 1
  23   12   27 1
  24   13   19 2
  25   13   20 am
  26   14   32 1
  27   14   33 1
  28   14   34 1
  29   15   16 ar
  30   15   35 1
  31   16   17 ar
  32   16   29 1
  33   17   18 ar
  34   17   36 1
  35   18   37 1
  36   20   21 1
  37   20   38 1
  38   21   39 1
  39   21   40 1
  40   21   41 1
  41   22   42 1
  42   22   43 1
  43   22   44 1
  44   23   24 1
  45   23   45 1
  46   23   46 1
  47   24   25 1
  48   24   47 1
  49   24   48 1
  50   25   26 1
  51   25   49 1
  52   25   50 1
  53   26   51 1
  54   26   52 1
  55   27   53 1
  56   27   54 1
  57   27   55 1

#	End of record

