#	Name: ASD02030315
#	Creating user name:	WinNT
#	Creation time:	15. 06. 2019 20:15

#	Modifying user name:	WinNT
#	Modification time:	15. 06. 2019 20:15

#	Program:	/corina/corina34_cracker 3.40 0067  02.08.2006

@<TRIPOS>MOLECULE
ASD02030315
  58   61    0    0    0
SMALL
NO_CHARGES


@<TRIPOS>ATOM
   1 N1             5.6528    -0.1340    -9.9229 N.am    
   2 C2             4.8582     0.1418   -11.1281 C.3     
   3 C3             5.5078     1.3049   -11.8879 C.3     
   4 N4             5.7625     2.4001   -10.9416 N.am    
   5 C5             6.5571     2.1244    -9.7364 C.3     
   6 C6             5.9027     0.9599    -8.9738 C.3     
   7 C7             6.1388    -1.3692    -9.6895 C.2     
   8 C8             6.2114    -1.8858    -8.3063 C.2     
   9 N9             5.7118    -1.3055    -7.2365 N.2     
  10 N10            6.7951    -3.0352    -7.9204 N.2     
  11 C11            6.6449    -3.1316    -6.6239 C.2     
  12 N12            5.9653    -2.0423    -6.2102 N.pl3   
  13 C13            5.5980    -1.7593    -4.8877 C.ar    
  14 O14            6.5175    -2.0585   -10.6164 O.2     
  15 C15            5.2764     3.6353   -11.1750 C.2     
  16 C16            4.6114     3.9384   -12.4637 C.ar    
  17 O17            5.3836     4.5004   -10.3283 O.2     
  18 C18            3.8084     5.0694   -12.5757 C.ar    
  19 C19            4.8965    -0.5979    -4.5940 C.ar    
  20 C20            4.5360    -0.3217    -3.2894 C.ar    
  21 C21            4.8729    -1.2006    -2.2767 C.ar    
  22 C22            5.5721    -2.3583    -2.5661 C.ar    
  23 C23            5.9300    -2.6430    -3.8691 C.ar    
  24 C24            3.7749     0.9391    -2.9697 C.3     
  25 N25            4.7915     3.1309   -13.5028 N.ar    
  26 C26            4.2178     3.3657   -14.6674 C.ar    
  27 C27            3.3982     4.4771   -14.8464 C.ar    
  28 C28            3.1910     5.3435   -13.7876 C.ar    
  29 O29            4.4290     2.5147   -15.7026 O.3     
  30 C30            5.2797     1.3931   -15.4571 C.3     
  31 C31            6.8450     0.4749    -7.8702 C.3     
  32 C32            4.8291    -1.1014   -12.0195 C.3     
  33 H33            3.8421     0.4137   -10.8421 H       
  34 H34            6.4491     0.9746   -12.3271 H       
  35 H35            4.8355     1.6494   -12.6737 H       
  36 H36            7.5731     1.8524   -10.0224 H       
  37 H37            6.5778     3.0100    -9.1013 H       
  38 H38            4.9621     1.2926    -8.5350 H       
  39 H39            6.9987    -3.9382    -5.9989 H       
  40 H40            3.6673     5.7257   -11.7296 H       
  41 H41            4.6333     0.0892    -5.3846 H       
  42 H42            4.5899    -0.9825    -1.2575 H       
  43 H43            5.8345    -3.0425    -1.7728 H       
  44 H44            6.4761    -3.5471    -4.0945 H       
  45 H45            2.7045     0.7431    -3.0319 H       
  46 H46            4.0259     1.2692    -1.9616 H       
  47 H47            4.0440     1.7170    -3.6842 H       
  48 H48            2.9322     4.6630   -15.8028 H       
  49 H49            2.5598     6.2125   -13.9011 H       
  50 H50            6.2679     1.7446   -15.1606 H       
  51 H51            4.8562     0.7837   -14.6588 H       
  52 H52            5.3639     0.7954   -16.3648 H       
  53 H53            7.2162    -0.5190    -8.1202 H       
  54 H54            7.6845     1.1643    -7.7803 H       
  55 H55            6.3056     0.4338    -6.9239 H       
  56 H56            4.5260    -1.9655   -11.4282 H       
  57 H57            4.1182    -0.9495   -12.8317 H       
  58 H58            5.8223    -1.2748   -12.4337 H       
@<TRIPOS>BOND
   1    1    2 1
   2    1    7 am
   3    1    6 1
   4    2    3 1
   5    2   32 1
   6    2   33 1
   7    3    4 1
   8    3   34 1
   9    3   35 1
  10    4    5 1
  11    4   15 am
  12    5    6 1
  13    5   36 1
  14    5   37 1
  15    6   31 1
  16    6   38 1
  17    7    8 1
  18    7   14 2
  19    8    9 2
  20    8   10 1
  21    9   12 1
  22   10   11 2
  23   11   12 1
  24   11   39 1
  25   12   13 1
  26   13   19 ar
  27   13   23 ar
  28   15   16 1
  29   15   17 2
  30   16   25 ar
  31   16   18 ar
  32   18   28 ar
  33   18   40 1
  34   19   20 ar
  35   19   41 1
  36   20   21 ar
  37   20   24 1
  38   21   22 ar
  39   21   42 1
  40   22   23 ar
  41   22   43 1
  42   23   44 1
  43   24   45 1
  44   24   46 1
  45   24   47 1
  46   25   26 ar
  47   26   27 ar
  48   26   29 1
  49   27   28 ar
  50   27   48 1
  51   28   49 1
  52   29   30 1
  53   30   50 1
  54   30   51 1
  55   30   52 1
  56   31   53 1
  57   31   54 1
  58   31   55 1
  59   32   56 1
  60   32   57 1
  61   32   58 1

#	End of record

