#	Name: ASD01351005
#	Creating user name:	WinNT
#	Creation time:	15. 06. 2019 19:16

#	Modifying user name:	WinNT
#	Modification time:	15. 06. 2019 19:16

#	Program:	/corina/corina34_cracker 3.40 0067  02.08.2006

@<TRIPOS>MOLECULE
ASD01351005
  37   39    0    0    0
SMALL
NO_CHARGES


@<TRIPOS>ATOM
   1 C1            -0.0515     1.2353    -0.3277 C.ar    
   2 C2             0.4951     0.9106     0.9003 C.ar    
   3 C3             0.6243     0.9231    -1.4931 C.ar    
   4 C4             1.7185     0.2731     0.9665 C.ar    
   5 C5             1.8478     0.2853    -1.4339 C.ar    
   6 C6             2.3998    -0.0419    -0.2021 C.ar    
   7 N7             3.6388    -0.6874    -0.1386 N.am    
   8 C8             4.8656     0.1065    -0.1549 C.3     
   9 C9             3.6833    -2.0311    -0.0579 C.2     
  10 C10            4.5572     1.4969    -0.7138 C.3     
  11 C11            5.3934     0.2452     1.2745 C.3     
  12 C12            5.9334    -0.5559    -1.0217 C.3     
  13 C13            4.9866    -2.7190    -0.1695 C.ar    
  14 O14            2.6627    -2.6710     0.1053 O.2     
  15 O15            4.3695     0.7893     2.1097 O.3     
  16 C16            6.0952    -2.0013    -0.6312 C.ar    
  17 C17            5.1209    -4.0603     0.1812 C.ar    
  18 C18            7.3227    -2.6209    -0.7228 C.ar    
  19 C19            6.3548    -4.6720     0.0795 C.ar    
  20 C20            7.4522    -3.9543    -0.3729 C.ar    
  21 H21           -1.0104     1.7298    -0.3769 H       
  22 H22           -0.0350     1.1562     1.8086 H       
  23 H23            0.1946     1.1781    -2.4506 H       
  24 H24            2.1450     0.0202     1.9259 H       
  25 H25            2.3748     0.0411    -2.3445 H       
  26 H26            3.8084     1.9822    -0.0879 H       
  27 H27            5.4680     2.0957    -0.7213 H       
  28 H28            4.1756     1.4033    -1.7306 H       
  29 H29            5.6863    -0.7351     1.6504 H       
  30 H30            6.2577     0.9094     1.2798 H       
  31 H31            5.6372    -0.4955    -2.0689 H       
  32 H32            6.8821    -0.0366    -0.8861 H       
  33 H33            4.6347     0.9051     3.0324 H       
  34 H34            4.2651    -4.6186     0.5309 H       
  35 H35            8.1832    -2.0668    -1.0676 H       
  36 H36            6.4644    -5.7118     0.3498 H       
  37 H37            8.4156    -4.4370    -0.4454 H       
@<TRIPOS>BOND
   1    1    2 ar
   2    1    3 ar
   3    1   21 1
   4    2    4 ar
   5    2   22 1
   6    3    5 ar
   7    3   23 1
   8    4    6 ar
   9    4   24 1
  10    5    6 ar
  11    5   25 1
  12    6    7 1
  13    7    8 1
  14    7    9 am
  15    8   11 1
  16    8   12 1
  17    8   10 1
  18    9   13 1
  19    9   14 2
  20   10   26 1
  21   10   27 1
  22   10   28 1
  23   11   15 1
  24   11   29 1
  25   11   30 1
  26   12   16 1
  27   12   31 1
  28   12   32 1
  29   13   16 ar
  30   13   17 ar
  31   15   33 1
  32   16   18 ar
  33   17   19 ar
  34   17   34 1
  35   18   20 ar
  36   18   35 1
  37   19   20 ar
  38   19   36 1
  39   20   37 1

#	End of record

