#	Name: ASD01140536
#	Creating user name:	WinNT
#	Creation time:	15. 06. 2019 19:01

#	Modifying user name:	WinNT
#	Modification time:	15. 06. 2019 19:01

#	Program:	/corina/corina34_cracker 3.40 0067  02.08.2006

@<TRIPOS>MOLECULE
ASD01140536
  39   41    0    0    0
SMALL
NO_CHARGES


@<TRIPOS>ATOM
   1 C1            -0.0185     1.5128     0.0104 C.3     
   2 C2             0.0021    -0.0041     0.0020 C.2     
   3 N3             1.2075    -0.6116    -0.0128 N.am    
   4 C4             2.3508     0.0831    -0.0195 C.2     
   5 N5             2.4325     1.4185    -0.0126 N.am    
   6 C6             1.3330     2.2017     0.0012 C.2     
   7 C7            -0.7901     1.9779    -1.1976 C.ar    
   8 C8            -0.3596     1.6369    -2.4664 C.ar    
   9 C9            -1.0673     2.0635    -3.5743 C.ar    
  10 C10           -2.2060     2.8310    -3.4137 C.ar    
  11 C11           -2.6369     3.1712    -2.1454 C.ar    
  12 C12           -1.9315     2.7408    -1.0370 C.ar    
  13 C13            1.2653    -2.0755    -0.0212 C.3     
  14 C14           -0.7783     1.9718     1.2565 C.3     
  15 C15           -0.0809     1.4555     2.4887 C.2     
  16 C16            0.2898     2.2888     3.4291 C.2     
  17 C17           -0.5974     1.6926    -4.9573 C.3     
  18 N18           -0.4069     0.2755    -5.2764 N.2     
  19 N19           -1.4259     0.7901    -5.7606 N.2     
  20 C20            0.2689     2.7280    -5.6771 C.3     
  21 F21            1.4259     2.9695    -4.9286 F       
  22 F22            0.6237     2.2422    -6.9402 F       
  23 F23           -0.4506     3.9192    -5.8208 F       
  24 O24            1.4225     3.4107     0.0064 O.2     
  25 O25           -1.0258    -0.6468     0.0088 O.2     
  26 O26            3.3910    -0.5445    -0.0324 O.2     
  27 H27            3.3078     1.8364    -0.0178 H       
  28 H28            0.5300     1.0374    -2.5918 H       
  29 H29           -2.7586     3.1650    -4.2795 H       
  30 H30           -3.5263     3.7710    -2.0200 H       
  31 H31           -2.2703     3.0035    -0.0457 H       
  32 H32            1.2699    -2.4330    -1.0509 H       
  33 H33            2.1738    -2.4061     0.4822 H       
  34 H34            0.3954    -2.4765     0.4988 H       
  35 H35           -0.8063     3.0610     1.2843 H       
  36 H36           -1.7961     1.5828     1.2253 H       
  37 H37            0.1134     0.3986     2.5964 H       
  38 H38            0.0956     3.3457     3.3213 H       
  39 H39            0.7896     1.9189     4.3121 H       
@<TRIPOS>BOND
   1    1    2 1
   2    1    6 1
   3    1    7 1
   4    1   14 1
   5    2    3 am
   6    2   25 2
   7    3    4 am
   8    3   13 1
   9    4    5 am
  10    4   26 2
  11    5    6 am
  12    5   27 1
  13    6   24 2
  14    7    8 ar
  15    7   12 ar
  16    8    9 ar
  17    8   28 1
  18    9   10 ar
  19    9   17 1
  20   10   11 ar
  21   10   29 1
  22   11   12 ar
  23   11   30 1
  24   12   31 1
  25   13   32 1
  26   13   33 1
  27   13   34 1
  28   14   15 1
  29   14   35 1
  30   14   36 1
  31   15   16 2
  32   15   37 1
  33   16   38 1
  34   16   39 1
  35   17   18 1
  36   17   19 1
  37   17   20 1
  38   18   19 2
  39   20   21 1
  40   20   22 1
  41   20   23 1

#	End of record

