#	Name: ASD01884468
#	Creating user name:	WinNT
#	Creation time:	15. 06. 2019 19:48

#	Modifying user name:	WinNT
#	Modification time:	15. 06. 2019 19:48

#	Program:	/corina/corina34_cracker 3.40 0067  02.08.2006

@<TRIPOS>MOLECULE
ASD01884468
  47   49    0    0    0
SMALL
NO_CHARGES


@<TRIPOS>ATOM
   1 C1            -0.0164     1.3576     0.0095 C.2     
   2 C2             0.0021    -0.0041     0.0020 C.2     
   3 C3             1.2440    -0.6751    -0.0134 C.2     
   4 C4             2.4024     0.0465    -0.0206 C.2     
   5 N5             2.3700     1.4025    -0.0130 N.am    
   6 C6             1.1986     2.0652     0.0017 C.2     
   7 C7             1.2897    -2.1583    -0.0214 C.ar    
   8 C8             3.6265     2.1556    -0.0210 C.3     
   9 O9             1.1910     3.2857     0.0087 O.2     
  10 C10            4.0438     2.4215    -1.4444 C.ar    
  11 C11            3.6197     3.5704    -2.0857 C.ar    
  12 C12            4.0020     3.8148    -3.3912 C.ar    
  13 C13            4.8095     2.9093    -4.0563 C.ar    
  14 C14            5.2337     1.7597    -3.4140 C.ar    
  15 C15            4.8553     1.5192    -2.1066 C.ar    
  16 C16            0.8122    -2.8771     1.0732 C.ar    
  17 C17            1.8049    -2.8348    -1.1257 C.ar    
  18 C18            1.8465    -4.2130    -1.1310 C.ar    
  19 C19            1.3751    -4.9277    -0.0361 C.ar    
  20 C20            0.8556    -4.2553     1.0638 C.ar    
  21 Cl21           5.2897     3.2153    -5.6962 Cl      
  22 N22            1.4182    -6.3236    -0.0435 N.pl3   
  23 C23            0.9216    -7.0779     1.1100 C.3     
  24 C24            1.0824    -8.5766     0.8469 C.3     
  25 O25            2.4718    -8.8976     0.7550 O.3     
  26 C26            2.7337   -10.2808     0.5092 C.3     
  27 H27           -0.9563     1.8895     0.0169 H       
  28 H28           -0.9217    -0.5635     0.0082 H       
  29 H29            3.3528    -0.4664    -0.0321 H       
  30 H30            3.4856     3.1030     0.4993 H       
  31 H31            4.4006     1.5763     0.4824 H       
  32 H32            2.9891     4.2770    -1.5665 H       
  33 H33            3.6703     4.7122    -3.8922 H       
  34 H34            5.8640     1.0525    -3.9326 H       
  35 H35            5.1863     0.6218    -1.6051 H       
  36 H36            0.4088    -2.3550     1.9282 H       
  37 H37            2.1710    -2.2798    -1.9769 H       
  38 H38            2.2454    -4.7375    -1.9867 H       
  39 H39            0.4899    -4.8125     1.9136 H       
  40 H40            1.7769    -6.7937    -0.8125 H       
  41 H41            1.4912    -6.8016     1.9973 H       
  42 H42           -0.1320    -6.8478     1.2683 H       
  43 H43            0.6328    -9.1393     1.6650 H       
  44 H44            0.5867    -8.8365    -0.0884 H       
  45 H45            2.2723   -10.5761    -0.4331 H       
  46 H46            3.8102   -10.4424     0.4531 H       
  47 H47            2.3183   -10.8789     1.3203 H       
@<TRIPOS>BOND
   1    1    2 2
   2    1    6 1
   3    1   27 1
   4    2    3 1
   5    2   28 1
   6    3    4 2
   7    3    7 1
   8    4    5 1
   9    4   29 1
  10    5    6 am
  11    5    8 1
  12    6    9 2
  13    7   16 ar
  14    7   17 ar
  15    8   10 1
  16    8   30 1
  17    8   31 1
  18   10   11 ar
  19   10   15 ar
  20   11   12 ar
  21   11   32 1
  22   12   13 ar
  23   12   33 1
  24   13   14 ar
  25   13   21 1
  26   14   15 ar
  27   14   34 1
  28   15   35 1
  29   16   20 ar
  30   16   36 1
  31   17   18 ar
  32   17   37 1
  33   18   19 ar
  34   18   38 1
  35   19   20 ar
  36   19   22 1
  37   20   39 1
  38   22   23 1
  39   22   40 1
  40   23   24 1
  41   23   41 1
  42   23   42 1
  43   24   25 1
  44   24   43 1
  45   24   44 1
  46   25   26 1
  47   26   45 1
  48   26   46 1
  49   26   47 1

#	End of record

