#	Name: ASD02030421
#	Creating user name:	WinNT
#	Creation time:	15. 06. 2019 20:15

#	Modifying user name:	WinNT
#	Modification time:	15. 06. 2019 20:15

#	Program:	/corina/corina34_cracker 3.40 0067  02.08.2006

@<TRIPOS>MOLECULE
ASD02030421
  23   24    0    0    0
SMALL
NO_CHARGES


@<TRIPOS>ATOM
   1 C1            -0.0195     1.4722    -0.0757 C.2     
   2 C2             0.0013    -0.0045    -0.0395 C.ar    
   3 C3             1.2182    -0.6894    -0.0548 C.ar    
   4 C4             1.2304    -2.0681    -0.0203 C.ar    
   5 C5             0.0404    -2.7727     0.0290 C.ar    
   6 C6            -1.1687    -2.1006     0.0440 C.ar    
   7 C7            -1.1953    -0.7215     0.0161 C.ar    
   8 O8             1.0234     2.0934    -0.1189 O.2     
   9 O9            -1.1953     2.1296    -0.0663 O.3     
  10 O10            4.2132    -3.1059    -1.2238 O.3     
  11 C11            2.8505    -3.5312    -1.3542 C.3     
  12 C12            2.5427    -2.8089    -0.0368 C.3     
  13 C13            3.7436    -1.9687    -0.4881 C.3     
  14 F14            2.7664    -3.5747     1.1124 F       
  15 H15            2.1476    -0.1407    -0.0940 H       
  16 H16            0.0556    -3.8523     0.0555 H       
  17 H17           -2.0938    -2.6566     0.0818 H       
  18 H18           -2.1397    -0.1979     0.0328 H       
  19 H19           -1.1583     3.0956    -0.0911 H       
  20 H20            2.3421    -3.0969    -2.2150 H       
  21 H21            2.7271    -4.6126    -1.2940 H       
  22 H22            4.4027    -1.6809     0.3310 H       
  23 H23            3.4684    -1.1263    -1.1227 H       
@<TRIPOS>BOND
   1    1    2 1
   2    1    8 2
   3    1    9 1
   4    2    3 ar
   5    2    7 ar
   6    3    4 ar
   7    3   15 1
   8    4    5 ar
   9    4   12 1
  10    5    6 ar
  11    5   16 1
  12    6    7 ar
  13    6   17 1
  14    7   18 1
  15    9   19 1
  16   10   11 1
  17   10   13 1
  18   11   12 1
  19   11   20 1
  20   11   21 1
  21   12   13 1
  22   12   14 1
  23   13   22 1
  24   13   23 1

#	End of record

