#	Name: ASD00844935
#	Creating user name:	WinNT
#	Creation time:	15. 06. 2019 18:51

#	Modifying user name:	WinNT
#	Modification time:	15. 06. 2019 18:51

#	Program:	/corina/corina34_cracker 3.40 0067  02.08.2006

@<TRIPOS>MOLECULE
ASD00844935
  95  100    0    0    0
SMALL
NO_CHARGES


@<TRIPOS>ATOM
   1 F1             5.6840    -2.3977    -1.8803 F       
   2 C2             0.8313     1.1979    -0.3554 C.ar    
   3 C3             1.0303    -0.1457    -0.6370 C.ar    
   4 C4             0.8485    -1.0951     0.3584 C.ar    
   5 C5             0.4700    -0.7004     1.6268 C.ar    
   6 C6             0.2718     0.6396     1.9049 C.ar    
   7 C7             0.4527     1.5875     0.9150 C.ar    
   8 C8             1.0633    -2.5557     0.0558 C.3     
   9 C9             0.6783    -3.4064     1.2473 C.2     
  10 C10            0.2612    -2.9693    -1.1797 C.3     
  11 C11           -1.1888    -2.6103    -0.9805 C.2     
  12 N12           -2.1059    -2.9770    -1.8976 N.am    
  13 O13           -1.5305    -1.9915     0.0050 O.2     
  14 C14           -3.5062    -2.5426    -1.7804 C.3     
  15 C15           -3.9367    -1.9223    -3.1138 C.3     
  16 N16           -3.6703    -2.8734    -4.2013 N.3     
  17 C17           -2.2333    -3.1515    -4.3259 C.3     
  18 C18           -1.7317    -3.8171    -3.0454 C.3     
  19 C19           -4.2249    -2.3886    -5.4722 C.3     
  20 C20           -3.8221    -3.3401    -6.6023 C.3     
  21 C21           -4.4529    -2.8638    -7.9128 C.3     
  22 N22           -5.9142    -2.8337    -7.7715 N.3     
  23 C23           -6.3272    -1.8911    -6.7240 C.3     
  24 C24           -5.7524    -2.3384    -5.3780 C.3     
  25 C25           -6.5604    -2.5143    -9.0516 C.3     
  26 O26           -0.4213    -3.4815     1.7535 O.2     
  27 N27            1.7834    -4.0629     1.6385 N.am    
  28 C28            2.5336    -2.8445    -0.1428 C.ar    
  29 C29            2.8897    -3.7556     0.8437 C.ar    
  30 C30            3.4618    -2.3895    -1.0523 C.ar    
  31 C31            4.7701    -2.8412    -0.9896 C.ar    
  32 C32            5.1379    -3.7507    -0.0095 C.ar    
  33 C33            4.2062    -4.2070     0.9030 C.ar    
  34 F34            6.4131    -4.1924     0.0535 F       
  35 C35            1.4539    -6.7173     2.2866 C.ar    
  36 C36            0.1992    -6.9769     1.7543 C.ar    
  37 C37            2.4120    -7.7128     2.3178 C.ar    
  38 C38            2.1234    -8.9684     1.8190 C.ar    
  39 C39            0.8697    -9.2331     1.2856 C.ar    
  40 C40           -0.0931    -8.2364     1.2535 C.ar    
  41 O41            0.5862   -10.4685     0.7955 O.3     
  42 O42           -0.7427    -5.9978     1.7242 O.3     
  43 C43            1.6257   -11.4468     0.8613 C.3     
  44 C44           -2.0122    -6.3358     1.1620 C.3     
  45 C45           -2.9344    -5.1160     1.2147 C.3     
  46 S46            1.8285    -5.1150     2.9166 S.o2    
  47 O47            3.1807    -5.1607     3.3512 O.2     
  48 O48            0.7498    -4.7569     3.7694 O.2     
  49 O49            1.4022    -0.5315    -1.8859 O.3     
  50 C50            1.4870     0.4895    -2.8820 C.3     
  51 C51            2.0072    -0.1142    -4.1881 C.3     
  52 F52            3.2343    -0.7442    -3.9545 F       
  53 F53            1.0859    -1.0512    -4.6682 F       
  54 H54            0.9765     1.9391    -1.1273 H       
  55 H55            0.3284    -1.4390     2.4019 H       
  56 H56           -0.0249     0.9462     2.8971 H       
  57 H57            0.2973     2.6335     1.1347 H       
  58 H58            0.6477    -2.4477    -2.0552 H       
  59 H59            0.3520    -4.0453    -1.3284 H       
  60 H60           -4.1384    -3.4014    -1.5550 H       
  61 H61           -3.5943    -1.8011    -0.9863 H       
  62 H62           -5.0023    -1.6952    -3.0822 H       
  63 H63           -3.3739    -1.0051    -3.2869 H       
  64 H64           -2.0636    -3.8159    -5.1732 H       
  65 H65           -1.6942    -2.2172    -4.4820 H       
  66 H66           -0.6475    -3.9209    -3.0871 H       
  67 H67           -2.1925    -4.7991    -2.9384 H       
  68 H68           -3.8388    -1.3909    -5.6812 H       
  69 H69           -2.7368    -3.3474    -6.7024 H       
  70 H70           -4.1739    -4.3462    -6.3737 H       
  71 H71           -4.0900    -1.8632    -8.1479 H       
  72 H72           -4.1797    -3.5473    -8.7168 H       
  73 H73           -5.9555    -0.8951    -6.9647 H       
  74 H74           -7.4153    -1.8680    -6.6646 H       
  75 H75           -6.1345    -3.3286    -5.1301 H       
  76 H76           -6.0460    -1.6299    -4.6034 H       
  77 H77           -6.2962    -3.2707    -9.7906 H       
  78 H78           -7.6421    -2.4985    -8.9186 H       
  79 H79           -6.2222    -1.5368    -9.3953 H       
  80 H80            3.1703    -1.6815    -1.8140 H       
  81 H81            4.4993    -4.9150     1.6640 H       
  82 H82            3.3881    -7.5088     2.7325 H       
  83 H83            2.8740    -9.7445     1.8439 H       
  84 H84           -1.0693    -8.4406     0.8391 H       
  85 H85            1.9123   -11.6030     1.9013 H       
  86 H86            1.2686   -12.3856     0.4380 H       
  87 H87            2.4893   -11.0981     0.2949 H       
  88 H88           -1.8795    -6.6464     0.1257 H       
  89 H89           -2.4563    -7.1519     1.7319 H       
  90 H90           -3.9027    -5.3738     0.7858 H       
  91 H91           -3.0671    -4.8054     2.2511 H       
  92 H92           -2.4903    -4.2999     0.6448 H       
  93 H93            0.4987     0.9181    -3.0481 H       
  94 H94            2.1695     1.2698    -2.5453 H       
  95 H95            2.1394     0.6766    -4.9266 H       
@<TRIPOS>BOND
   1    1   31 1
   2    2    3 ar
   3    2    7 ar
   4    2   54 1
   5    3    4 ar
   6    3   49 1
   7    4    5 ar
   8    4    8 1
   9    5    6 ar
  10    5   55 1
  11    6    7 ar
  12    6   56 1
  13    7   57 1
  14    8    9 1
  15    8   10 1
  16    8   28 1
  17    9   26 2
  18    9   27 am
  19   10   11 1
  20   10   58 1
  21   10   59 1
  22   11   12 am
  23   11   13 2
  24   12   14 1
  25   12   18 1
  26   14   15 1
  27   14   60 1
  28   14   61 1
  29   15   16 1
  30   15   62 1
  31   15   63 1
  32   16   17 1
  33   16   19 1
  34   17   18 1
  35   17   64 1
  36   17   65 1
  37   18   66 1
  38   18   67 1
  39   19   20 1
  40   19   24 1
  41   19   68 1
  42   20   21 1
  43   20   69 1
  44   20   70 1
  45   21   22 1
  46   21   71 1
  47   21   72 1
  48   22   23 1
  49   22   25 1
  50   23   24 1
  51   23   73 1
  52   23   74 1
  53   24   75 1
  54   24   76 1
  55   25   77 1
  56   25   78 1
  57   25   79 1
  58   27   46 am
  59   27   29 1
  60   28   29 ar
  61   28   30 ar
  62   29   33 ar
  63   30   31 ar
  64   30   80 1
  65   31   32 ar
  66   32   33 ar
  67   32   34 1
  68   33   81 1
  69   35   36 ar
  70   35   37 ar
  71   35   46 1
  72   36   42 1
  73   36   40 ar
  74   37   38 ar
  75   37   82 1
  76   38   39 ar
  77   38   83 1
  78   39   40 ar
  79   39   41 1
  80   40   84 1
  81   41   43 1
  82   42   44 1
  83   43   85 1
  84   43   86 1
  85   43   87 1
  86   44   45 1
  87   44   88 1
  88   44   89 1
  89   45   90 1
  90   45   91 1
  91   45   92 1
  92   46   47 2
  93   46   48 2
  94   49   50 1
  95   50   51 1
  96   50   93 1
  97   50   94 1
  98   51   52 1
  99   51   53 1
 100   51   95 1

#	End of record

