#	Name: ASD03240277
#	Creating user name:	WinNT
#	Creation time:	15. 06. 2019 20:34

#	Modifying user name:	WinNT
#	Modification time:	15. 06. 2019 20:34

#	Program:	/corina/corina34_cracker 3.40 0067  02.08.2006

@<TRIPOS>MOLECULE
ASD03240277
  70   74    0    0    0
SMALL
NO_CHARGES


@<TRIPOS>ATOM
   1 C1            -0.0229     1.3893     0.0019 C.ar    
   2 C2            -0.0000    -0.0006    -0.0036 C.ar    
   3 C3             1.2133    -0.6788    -0.0224 C.ar    
   4 C4             2.3978     0.0254    -0.0351 C.ar    
   5 C5             2.3784     1.4213    -0.0295 C.ar    
   6 C6             1.1581     2.0994    -0.0111 C.ar    
   7 C7             3.6473     2.1799    -0.0426 C.2     
   8 N8            -1.2000    -0.7180     0.0101 N.am    
   9 C9            -2.2609    -0.2437     0.6927 C.2     
  10 C10           -3.5881    -0.9528     0.6103 C.3     
  11 O11           -2.1475     0.7538     1.3733 O.2     
  12 N12           -4.5714    -0.2460     1.4349 N.pl3   
  13 C13           -5.8624    -0.7117     1.5159 C.2     
  14 N14           -6.2116    -1.7819     0.8589 N.2     
  15 N15           -6.7851    -0.0484     2.2897 N.pl3   
  16 N16            4.9045     1.6223    -0.0610 N.pl3   
  17 C17            5.8578     2.6207    -0.0698 C.ar    
  18 C18            5.1765     3.8524    -0.0565 C.ar    
  19 C19            3.7499     3.5325    -0.0441 C.2     
  20 C20            7.2480     2.6067    -0.0884 C.ar    
  21 C21            7.9499     3.7918    -0.0933 C.ar    
  22 C22            7.2797     5.0139    -0.0797 C.ar    
  23 C23            5.8980     5.0497    -0.0616 C.ar    
  24 N24            8.0083     6.2090    -0.0839 N.pl3   
  25 C25            9.4727     6.1740    -0.1026 C.3     
  26 C26            7.3064     7.4949    -0.0697 C.3     
  27 C27            7.0838     7.9298     1.3559 C.ar    
  28 C28            9.9569     6.1679    -1.5297 C.ar    
  29 C29           10.2069     7.3648    -2.1772 C.ar    
  30 C30           10.6507     7.3666    -3.4833 C.ar    
  31 C31           10.8475     6.1567    -4.1520 C.ar    
  32 C32           10.5932     4.9524    -3.4925 C.ar    
  33 C33           10.1548     4.9652    -2.1846 C.ar    
  34 C34            8.0353     8.7036     1.9963 C.ar    
  35 C35            7.8377     9.1057     3.3010 C.ar    
  36 C36            6.6742     8.7300     3.9753 C.ar    
  37 C37            5.7181     7.9490     3.3229 C.ar    
  38 C38            5.9261     7.5584     2.0163 C.ar    
  39 C39            6.4626     9.1433     5.3299 C.1     
  40 N40            6.2947     9.4712     6.4046 N.1     
  41 C41           11.3075     6.1509    -5.5081 C.1     
  42 N42           11.6725     6.1463    -6.5838 N.1     
  43 H43           -0.9672     1.9132     0.0120 H       
  44 H44            1.2276    -1.7587    -0.0267 H       
  45 H45            3.3402    -0.5021    -0.0489 H       
  46 H46            1.1397     3.1792    -0.0072 H       
  47 H47           -1.2689    -1.5571    -0.4716 H       
  48 H48           -3.9274    -0.9695    -0.4254 H       
  49 H49           -3.4772    -1.9747     0.9728 H       
  50 H50           -4.3115     0.5504     1.9238 H       
  51 H51           -7.1225    -2.1104     0.9160 H       
  52 H52           -6.5252     0.7480     2.7786 H       
  53 H53           -7.6960    -0.3770     2.3468 H       
  54 H54            5.0929     0.6708    -0.0666 H       
  55 H55            2.9331     4.2389    -0.0326 H       
  56 H56            7.7780     1.6657    -0.0987 H       
  57 H57            9.0296     3.7740    -0.1074 H       
  58 H58            5.3791     5.9969    -0.0515 H       
  59 H59            9.8638     7.0529     0.4099 H       
  60 H60            9.8211     5.2734     0.4031 H       
  61 H61            7.9070     8.2423    -0.5881 H       
  62 H62            6.3447     7.3895    -0.5718 H       
  63 H63           10.0539     8.2999    -1.6589 H       
  64 H64           10.8451     8.3016    -3.9877 H       
  65 H65           10.7431     4.0131    -4.0040 H       
  66 H66            9.9578     4.0346    -1.6733 H       
  67 H67            8.9350     8.9932     1.4737 H       
  68 H68            8.5814     9.7094     3.7999 H       
  69 H69            4.8161     7.6546     3.8388 H       
  70 H70            5.1874     6.9543     1.5105 H       
@<TRIPOS>BOND
   1    1    2 ar
   2    1    6 ar
   3    1   43 1
   4    2    3 ar
   5    2    8 1
   6    3    4 ar
   7    3   44 1
   8    4    5 ar
   9    4   45 1
  10    5    6 ar
  11    5    7 1
  12    6   46 1
  13    7   16 1
  14    7   19 2
  15    8    9 am
  16    8   47 1
  17    9   10 1
  18    9   11 2
  19   10   12 1
  20   10   48 1
  21   10   49 1
  22   12   13 1
  23   12   50 1
  24   13   14 2
  25   13   15 1
  26   14   51 1
  27   15   52 1
  28   15   53 1
  29   16   17 1
  30   16   54 1
  31   17   18 ar
  32   17   20 ar
  33   18   19 1
  34   18   23 ar
  35   19   55 1
  36   20   21 ar
  37   20   56 1
  38   21   22 ar
  39   21   57 1
  40   22   23 ar
  41   22   24 1
  42   23   58 1
  43   24   25 1
  44   24   26 1
  45   25   28 1
  46   25   59 1
  47   25   60 1
  48   26   27 1
  49   26   61 1
  50   26   62 1
  51   27   34 ar
  52   27   38 ar
  53   28   29 ar
  54   28   33 ar
  55   29   30 ar
  56   29   63 1
  57   30   31 ar
  58   30   64 1
  59   31   32 ar
  60   31   41 1
  61   32   33 ar
  62   32   65 1
  63   33   66 1
  64   34   35 ar
  65   34   67 1
  66   35   36 ar
  67   35   68 1
  68   36   37 ar
  69   36   39 1
  70   37   38 ar
  71   37   69 1
  72   38   70 1
  73   39   40 3
  74   41   42 3

#	End of record

