#	Name: ASD01720079
#	Creating user name:	WinNT
#	Creation time:	15. 06. 2019 19:23

#	Modifying user name:	WinNT
#	Modification time:	15. 06. 2019 19:23

#	Program:	/corina/corina34_cracker 3.40 0067  02.08.2006

@<TRIPOS>MOLECULE
ASD01720079
  67   70    0    0    0
SMALL
NO_CHARGES


@<TRIPOS>ATOM
   1 C1            -0.0045     1.5265     0.0843 C.3     
   2 C2             0.0206    -0.0036     0.0986 C.3     
   3 C3             0.8027    -0.4849     1.3238 C.3     
   4 C4             2.2161     0.1025     1.2804 C.3     
   5 C5             2.1274     1.6295     1.2318 C.3     
   6 N6             1.3708     2.0395     0.0419 N.3     
   7 C7             1.3825     3.4161    -0.1035 C.ar    
   8 C8             2.6022     4.0892    -0.1641 C.ar    
   9 C9             2.6165     5.4498    -0.3083 C.ar    
  10 C10            1.3914     6.1287    -0.3910 C.ar    
  11 C11            0.1978     5.3892    -0.3230 C.ar    
  12 N12            0.2345     4.0725    -0.1882 N.ar    
  13 C13           -1.4118    -0.5374     0.1649 C.3     
  14 C14           -1.3933    -2.0403     0.0553 C.2     
  15 O15           -0.3424    -2.6245    -0.0636 O.2     
  16 O16           -2.5444    -2.7299     0.0899 O.3     
  17 N17           -1.0197     6.0391    -0.4021 N.pl3   
  18 C18            1.3565     7.5913    -0.5458 C.2     
  19 O19            0.2959     8.1586    -0.7271 O.2     
  20 N20            2.4998     8.3026    -0.4869 N.am    
  21 C21            2.4650     9.7591    -0.6411 C.3     
  22 C22            2.1637    10.4081     0.7113 C.3     
  23 C23            3.8211    10.2503    -1.1517 C.3     
  24 C24            3.7848    11.7714    -1.3127 C.3     
  25 C25            3.4834    12.4204     0.0396 C.3     
  26 C26            2.1274    11.9291     0.5502 C.3     
  27 C27           -2.2616     5.2639    -0.4560 C.3     
  28 C28           -2.7603     4.9648     0.9728 C.3     
  29 C29           -3.3661     6.0852    -1.1441 C.3     
  30 C30           -4.4974     6.2565    -0.1093 C.3     
  31 C31           -3.7903     6.0858     1.2582 C.3     
  32 H32           -0.5485     1.8726    -0.7946 H       
  33 H33           -0.5002     1.8900     0.9845 H       
  34 H34            0.5038    -0.3681    -0.8079 H       
  35 H35            0.2982    -0.1534     2.2314 H       
  36 H36            0.8602    -1.5734     1.3148 H       
  37 H37            2.7643    -0.2020     2.1719 H       
  38 H38            2.7339    -0.2604     0.3925 H       
  39 H39            1.6217     1.9926     2.1266 H       
  40 H40            3.1318     2.0504     1.1864 H       
  41 H41            3.5298     3.5401    -0.0974 H       
  42 H42            3.5506     5.9896    -0.3569 H       
  43 H43           -1.8639    -0.2478     1.1135 H       
  44 H44           -1.9934    -0.1202    -0.6571 H       
  45 H45           -2.4821    -3.6920     0.0160 H       
  46 H46           -1.0517     7.0083    -0.4220 H       
  47 H47            3.3456     7.8503    -0.3423 H       
  48 H48            1.6878    10.0304    -1.3555 H       
  49 H49            1.1976    10.0581     1.0750 H       
  50 H50            2.9409    10.1368     1.4257 H       
  51 H51            4.5983     9.9791    -0.4372 H       
  52 H52            4.0358     9.7880    -2.1151 H       
  53 H53            4.7509    12.1214    -1.6765 H       
  54 H54            3.0076    12.0427    -2.0272 H       
  55 H55            4.2607    12.1491     0.7541 H       
  56 H56            3.4576    13.5041    -0.0751 H       
  57 H57            1.3502    12.2004    -0.1642 H       
  58 H58            1.9127    12.3915     1.5137 H       
  59 H59           -2.0968     4.3324    -0.9974 H       
  60 H60           -3.2400     3.9868     1.0126 H       
  61 H61           -1.9351     5.0151     1.6832 H       
  62 H62           -2.9781     7.0605    -1.4379 H       
  63 H63           -3.7379     5.5518    -2.0189 H       
  64 H64           -4.9399     7.2494    -0.1887 H       
  65 H65           -5.2576     5.4871    -0.2444 H       
  66 H66           -4.5002     5.7724     2.0236 H       
  67 H67           -3.2872     7.0075     1.5506 H       
@<TRIPOS>BOND
   1    1    2 1
   2    1    6 1
   3    1   32 1
   4    1   33 1
   5    2    3 1
   6    2   13 1
   7    2   34 1
   8    3    4 1
   9    3   35 1
  10    3   36 1
  11    4    5 1
  12    4   37 1
  13    4   38 1
  14    5    6 1
  15    5   39 1
  16    5   40 1
  17    6    7 1
  18    7    8 ar
  19    7   12 ar
  20    8    9 ar
  21    8   41 1
  22    9   10 ar
  23    9   42 1
  24   10   11 ar
  25   10   18 1
  26   11   12 ar
  27   11   17 1
  28   13   14 1
  29   13   43 1
  30   13   44 1
  31   14   15 2
  32   14   16 1
  33   16   45 1
  34   17   27 1
  35   17   46 1
  36   18   19 2
  37   18   20 am
  38   20   21 1
  39   20   47 1
  40   21   23 1
  41   21   22 1
  42   21   48 1
  43   22   26 1
  44   22   49 1
  45   22   50 1
  46   23   24 1
  47   23   51 1
  48   23   52 1
  49   24   25 1
  50   24   53 1
  51   24   54 1
  52   25   26 1
  53   25   55 1
  54   25   56 1
  55   26   57 1
  56   26   58 1
  57   27   29 1
  58   27   28 1
  59   27   59 1
  60   28   31 1
  61   28   60 1
  62   28   61 1
  63   29   30 1
  64   29   62 1
  65   29   63 1
  66   30   31 1
  67   30   64 1
  68   30   65 1
  69   31   66 1
  70   31   67 1

#	End of record

