#	Name: ASD02408033
#	Creating user name:	WinNT
#	Creation time:	15. 06. 2019 20:21

#	Modifying user name:	WinNT
#	Modification time:	15. 06. 2019 20:21

#	Program:	/corina/corina34_cracker 3.40 0067  02.08.2006

@<TRIPOS>MOLECULE
ASD02408033
  33   33    0    0    0
SMALL
NO_CHARGES


@<TRIPOS>ATOM
   1 O1            -0.1060     1.5193    -0.4883 O.3     
   2 S2             3.9156     3.1277    -0.0797 S.3     
   3 C3             2.4506     4.1045    -0.0157 C.2     
   4 C4             1.1957     3.4891    -0.0846 C.2     
   5 C5             1.1024     2.0955    -0.3175 C.2     
   6 N6             2.5397     5.4616     0.1010 N.pl3   
   7 O7             2.1120     1.4173    -0.3638 O.2     
   8 C8             3.8446     6.0950     0.3062 C.3     
   9 C9             3.7653     7.5687    -0.0972 C.3     
  10 C10            5.1281     8.2303     0.1171 C.3     
  11 C11            5.5194     8.1257     1.5925 C.3     
  12 C12            5.5988     6.6520     1.9959 C.3     
  13 C13            4.2359     5.9904     1.7816 C.3     
  14 S14            4.6881     3.7591    -1.8820 S.3     
  15 C15           -0.1255     0.1092    -0.7192 C.3     
  16 C16            0.0059     4.2687     0.0805 C.1     
  17 N17           -0.9380     4.8871     0.2115 N.1     
  18 H18            1.7390     6.0065     0.0481 H       
  19 H19            4.5933     5.5909    -0.3049 H       
  20 H20            3.4865     7.6432    -1.1483 H       
  21 H21            3.0166     8.0729     0.5139 H       
  22 H22            5.8768     7.7261    -0.4940 H       
  23 H23            5.0716     9.2802    -0.1703 H       
  24 H24            6.4903     8.5970     1.7452 H       
  25 H25            4.7707     8.6298     2.2036 H       
  26 H26            6.3475     6.1478     1.3848 H       
  27 H27            5.8776     6.5775     3.0470 H       
  28 H28            3.4872     6.4946     2.3927 H       
  29 H29            4.2925     4.9405     2.0690 H       
  30 H30            5.8214     3.0432    -1.9928 H       
  31 H31           -1.1560    -0.2251    -0.8392 H       
  32 H32            0.4381    -0.1187    -1.6240 H       
  33 H33            0.3266    -0.4043     0.1294 H       
@<TRIPOS>BOND
   1    1   15 1
   2    1    5 1
   3    2    3 1
   4    2   14 1
   5    3    4 2
   6    3    6 1
   7    4    5 1
   8    4   16 1
   9    5    7 2
  10    6    8 1
  11    6   18 1
  12    8    9 1
  13    8   13 1
  14    8   19 1
  15    9   10 1
  16    9   20 1
  17    9   21 1
  18   10   11 1
  19   10   22 1
  20   10   23 1
  21   11   12 1
  22   11   24 1
  23   11   25 1
  24   12   13 1
  25   12   26 1
  26   12   27 1
  27   13   28 1
  28   13   29 1
  29   14   30 1
  30   15   31 1
  31   15   32 1
  32   15   33 1
  33   16   17 3

#	End of record

