#	Name: ASD01815879
#	Creating user name:	WinNT
#	Creation time:	15. 06. 2019 19:34

#	Modifying user name:	WinNT
#	Modification time:	15. 06. 2019 19:34

#	Program:	/corina/corina34_cracker 3.40 0067  02.08.2006

@<TRIPOS>MOLECULE
ASD01815879
  54   59    0    0    0
SMALL
NO_CHARGES


@<TRIPOS>ATOM
   1 C1            -0.0167     1.3813     0.0096 C.ar    
   2 C2             0.0021    -0.0041     0.0020 C.ar    
   3 C3             1.1984    -0.6909    -0.0127 C.ar    
   4 C4             2.4015     0.0059    -0.0204 C.ar    
   5 C5             2.3790     1.4106    -0.0132 C.ar    
   6 C6             1.1663     2.0916     0.0022 C.ar    
   7 N7             3.6053    -0.6773    -0.0347 N.pl3   
   8 C8             4.7970    -0.0587    -0.0427 C.2     
   9 C9             4.9000     1.3102    -0.0368 C.2     
  10 C10            3.6670     2.1301    -0.0217 C.2     
  11 C11            5.9971     2.2728    -0.0422 C.2     
  12 N12            5.4246     3.4960    -0.0312 N.am    
  13 N13            4.0323     3.3799    -0.0190 N.2     
  14 C14            6.1285     4.7112    -0.0317 C.2     
  15 O15            7.1916     2.0227    -0.0537 O.2     
  16 C16            3.5779    -2.1420    -0.0408 C.3     
  17 C17            3.5552    -2.6381    -1.4636 C.ar    
  18 C18            4.7439    -2.8873    -2.1255 C.ar    
  19 C19            4.7290    -3.3417    -3.4287 C.ar    
  20 C20            3.5135    -3.5494    -4.0775 C.ar    
  21 C21            2.3191    -3.2967    -3.4059 C.ar    
  22 C22            2.3457    -2.8479    -2.1010 C.ar    
  23 C23            3.4911    -4.0374    -5.4787 C.ar    
  24 C24            2.2756    -4.2451    -6.1274 C.ar    
  25 C25            2.2607    -4.6991    -7.4307 C.ar    
  26 C26            3.4494    -4.9484    -8.0926 C.ar    
  27 C27            4.6589    -4.7444    -7.4532 C.ar    
  28 C28            4.6856    -4.2842    -6.1523 C.ar    
  29 N29            7.4653     4.8513    -0.0436 N.2     
  30 C30            5.5812     5.9482    -0.0262 C.2     
  31 C31            7.7658     6.1214    -0.0405 C.2     
  32 N32            6.6233     6.8403    -0.0296 N.pl3   
  33 C33            6.5162     8.3014    -0.0259 C.3     
  34 H34           -0.9602     1.9068     0.0170 H       
  35 H35           -0.9289    -0.5515     0.0080 H       
  36 H36            1.2004    -1.7709    -0.0178 H       
  37 H37            1.1506     3.1715     0.0081 H       
  38 H38            5.6983    -0.6537    -0.0538 H       
  39 H39            4.4657    -2.5241     0.4631 H       
  40 H40            2.6862    -2.4909     0.4799 H       
  41 H41            5.6855    -2.7256    -1.6218 H       
  42 H42            5.6577    -3.5356    -3.9447 H       
  43 H43            1.3741    -3.4560    -3.9041 H       
  44 H44            1.4205    -2.6517    -1.5795 H       
  45 H45            1.3469    -4.0514    -5.6113 H       
  46 H46            1.3191    -4.8604    -7.9345 H       
  47 H47            3.4331    -5.3039    -9.1123 H       
  48 H48            5.5841    -4.9409    -7.9746 H       
  49 H49            5.6305    -4.1249    -5.6541 H       
  50 H50            4.5280     6.1872    -0.0207 H       
  51 H51            8.7654     6.5304    -0.0480 H       
  52 H52            6.4948     8.6615     1.0027 H       
  53 H53            7.3746     8.7299    -0.5432 H       
  54 H54            5.5994     8.5998    -0.5344 H       
@<TRIPOS>BOND
   1    1    2 ar
   2    1    6 ar
   3    1   34 1
   4    2    3 ar
   5    2   35 1
   6    3    4 ar
   7    3   36 1
   8    4    5 ar
   9    4    7 1
  10    5    6 ar
  11    5   10 1
  12    6   37 1
  13    7    8 1
  14    7   16 1
  15    8    9 2
  16    8   38 1
  17    9   10 1
  18    9   11 1
  19   10   13 2
  20   11   12 am
  21   11   15 2
  22   12   13 1
  23   12   14 1
  24   14   29 1
  25   14   30 2
  26   16   17 1
  27   16   39 1
  28   16   40 1
  29   17   18 ar
  30   17   22 ar
  31   18   19 ar
  32   18   41 1
  33   19   20 ar
  34   19   42 1
  35   20   21 ar
  36   20   23 1
  37   21   22 ar
  38   21   43 1
  39   22   44 1
  40   23   24 ar
  41   23   28 ar
  42   24   25 ar
  43   24   45 1
  44   25   26 ar
  45   25   46 1
  46   26   27 ar
  47   26   47 1
  48   27   28 ar
  49   27   48 1
  50   28   49 1
  51   29   31 2
  52   30   32 1
  53   30   50 1
  54   31   32 1
  55   31   51 1
  56   32   33 1
  57   33   52 1
  58   33   53 1
  59   33   54 1

#	End of record

