#	Name: ASD03092079
#	Creating user name:	WinNT
#	Creation time:	15. 06. 2019 20:31

#	Modifying user name:	WinNT
#	Modification time:	15. 06. 2019 20:31

#	Program:	/corina/corina34_cracker 3.40 0067  02.08.2006

@<TRIPOS>MOLECULE
ASD03092079
  40   42    0    0    0
SMALL
NO_CHARGES


@<TRIPOS>ATOM
   1 N1            -0.4978     1.8820     0.5235 N.pl3   
   2 C2            -0.0785     0.5860     0.4651 C.2     
   3 C3            -1.1565    -0.1777     0.1183 C.2     
   4 C4            -2.2548     0.6775    -0.0368 C.2     
   5 N5            -1.8627     1.9061     0.2102 N.2     
   6 N6            -3.5521     0.2877    -0.3904 N.pl3   
   7 C7            -4.5295     1.2572    -0.6442 C.ar    
   8 C8            -5.8588     0.8813    -0.8005 C.ar    
   9 C9            -6.8230     1.8429    -1.0510 C.ar    
  10 C10           -6.4619     3.1782    -1.1456 C.ar    
  11 C11           -4.1736     2.5963    -0.7346 C.ar    
  12 C12            1.2925     0.0968     0.7284 C.ar    
  13 C13            0.3306     3.0423     0.8604 C.3     
  14 C14            1.7269    -1.1330     0.2215 C.ar    
  15 C15            3.0135    -1.5507     0.4915 C.ar    
  16 N16            3.8288    -0.8085     1.2162 N.ar    
  17 C17            3.4594     0.3569     1.7130 C.ar    
  18 C18            2.1931     0.8538     1.4867 C.ar    
  19 C19            4.4366     1.1584     2.5337 C.3     
  20 O20           -0.1135     4.1774     0.1145 O.3     
  21 C21           -5.1382     3.5520    -0.9900 C.ar    
  22 F22           -8.1154     1.4801    -1.2037 F       
  23 C23            0.2111     3.3370     2.3570 C.3     
  24 F24           -6.2092    -0.4202    -0.7085 F       
  25 F25           -7.4033     4.1159    -1.3905 F       
  26 H26           -1.1611    -1.2496    -0.0132 H       
  27 H27           -3.7737    -0.6541    -0.4594 H       
  28 H28           -3.1420     2.8904    -0.6091 H       
  29 H29            1.3709     2.8300     0.6138 H       
  30 H30            1.0647    -1.7461    -0.3718 H       
  31 H31            3.3581    -2.4984     0.1047 H       
  32 H32            1.8975     1.8084     1.8965 H       
  33 H33            5.0039     1.8202     1.8792 H       
  34 H34            3.8928     1.7526     3.2681 H       
  35 H35            5.1200     0.4823     3.0475 H       
  36 H36           -1.0330     4.4243     0.2842 H       
  37 H37           -4.8596     4.5928    -1.0645 H       
  38 H38            0.5499     2.4712     2.9260 H       
  39 H39            0.8275     4.2004     2.6077 H       
  40 H40           -0.8291     3.5494     2.6036 H       
@<TRIPOS>BOND
   1    1    2 1
   2    1   13 1
   3    1    5 1
   4    2    3 2
   5    2   12 1
   6    3    4 1
   7    3   26 1
   8    4    5 2
   9    4    6 1
  10    6    7 1
  11    6   27 1
  12    7    8 ar
  13    7   11 ar
  14    8    9 ar
  15    8   24 1
  16    9   10 ar
  17    9   22 1
  18   10   21 ar
  19   10   25 1
  20   11   21 ar
  21   11   28 1
  22   12   14 ar
  23   12   18 ar
  24   13   20 1
  25   13   23 1
  26   13   29 1
  27   14   15 ar
  28   14   30 1
  29   15   16 ar
  30   15   31 1
  31   16   17 ar
  32   17   18 ar
  33   17   19 1
  34   18   32 1
  35   19   33 1
  36   19   34 1
  37   19   35 1
  38   20   36 1
  39   21   37 1
  40   23   38 1
  41   23   39 1
  42   23   40 1

#	End of record

