#	Name: ASD05470006
#	Creating user name:	WinNT
#	Creation time:	15. 06. 2019 21:00

#	Modifying user name:	WinNT
#	Modification time:	15. 06. 2019 21:00

#	Program:	/corina/corina34_cracker 3.40 0067  02.08.2006

@<TRIPOS>MOLECULE
ASD05470006
  44   47    0    0    0
SMALL
NO_CHARGES


@<TRIPOS>ATOM
   1 Cl1            6.6858    -6.9632    -0.0716 Cl      
   2 O2            -0.0163     1.3486     0.0095 O.3     
   3 O3             2.3572    -0.4212    -0.0221 O.2     
   4 O4            -3.4795    -1.2852     0.0280 O.3     
   5 O5            -2.7589     0.8165     0.0319 O.2     
   6 N6             0.8774    -2.1453    -0.0170 N.am    
   7 N7             3.1146    -3.1156    -0.0378 N.pl3   
   8 N8             1.3994    -4.4761    -0.0230 N.2     
   9 C9            -0.5879    -2.2277    -0.0038 C.3     
  10 C10           -1.0897    -0.8026     0.0082 C.2     
  11 C11           -1.0781    -2.9394    -1.2384 C.ar    
  12 C12            1.2181    -0.8438    -0.0136 C.2     
  13 C13            1.7529    -3.2160    -0.0255 C.2     
  14 C14            0.0021    -0.0041     0.0020 C.2     
  15 C15            3.6211    -4.4037    -0.0431 C.ar    
  16 C16           -2.4898    -0.3690     0.0234 C.2     
  17 C17           -2.1275    -3.8347    -1.1493 C.ar    
  18 C18           -0.4820    -2.6926    -2.4610 C.ar    
  19 C19            2.5081    -5.2610    -0.0335 C.ar    
  20 C20           -2.5771    -4.4875    -2.2818 C.ar    
  21 C21           -0.9316    -3.3454    -3.5935 C.ar    
  22 C22            4.9030    -4.9331    -0.0546 C.ar    
  23 C23            2.7051    -6.6445    -0.0367 C.ar    
  24 C24           -1.9776    -4.2447    -3.5035 C.ar    
  25 C25            5.0808    -6.3019    -0.0566 C.ar    
  26 C26            3.9841    -7.1532    -0.0492 C.ar    
  27 C27           -4.8420    -0.7836     0.0433 C.3     
  28 C28           -5.8189    -1.9612     0.0464 C.3     
  29 H29           -0.9258    -2.7515     0.8904 H       
  30 H30            3.6308    -2.2944    -0.0457 H       
  31 H31           -2.5959    -4.0244    -0.1949 H       
  32 H32            0.3348    -1.9895    -2.5314 H       
  33 H33           -3.3966    -5.1876    -2.2121 H       
  34 H34           -0.4661    -3.1523    -4.5487 H       
  35 H35            5.7600    -4.2760    -0.0624 H       
  36 H36            1.8565    -7.3125    -0.0290 H       
  37 H37            0.8617     1.7539     0.0033 H       
  38 H38           -2.3286    -4.7550    -4.3882 H       
  39 H39            4.1355    -8.2225    -0.0517 H       
  40 H40           -4.9972    -0.1805     0.9378 H       
  41 H41           -5.0138    -0.1714    -0.8421 H       
  42 H42           -5.6638    -2.5643    -0.8481 H       
  43 H43           -5.6472    -2.5734     0.9317 H       
  44 H44           -6.8418    -1.5847     0.0579 H       
@<TRIPOS>BOND
   1    1   25 1
   2    2   14 1
   3    2   37 1
   4    3   12 2
   5    4   16 1
   6    4   27 1
   7    5   16 2
   8    6    9 1
   9    6   12 am
  10    6   13 1
  11    7   13 1
  12    7   15 1
  13    7   30 1
  14    8   13 2
  15    8   19 1
  16    9   10 1
  17    9   11 1
  18    9   29 1
  19   10   14 2
  20   10   16 1
  21   11   17 ar
  22   11   18 ar
  23   12   14 1
  24   15   19 ar
  25   15   22 ar
  26   17   20 ar
  27   17   31 1
  28   18   21 ar
  29   18   32 1
  30   19   23 ar
  31   20   24 ar
  32   20   33 1
  33   21   24 ar
  34   21   34 1
  35   22   25 ar
  36   22   35 1
  37   23   26 ar
  38   23   36 1
  39   24   38 1
  40   25   26 ar
  41   26   39 1
  42   27   28 1
  43   27   40 1
  44   27   41 1
  45   28   42 1
  46   28   43 1
  47   28   44 1

#	End of record

