#	Name: ASD02890001
#	Creating user name:	WinNT
#	Creation time:	15. 06. 2019 20:26

#	Modifying user name:	WinNT
#	Modification time:	15. 06. 2019 20:26

#	Program:	/corina/corina34_cracker 3.40 0067  02.08.2006

@<TRIPOS>MOLECULE
ASD02890001
  30   31    0    0    0
SMALL
NO_CHARGES


@<TRIPOS>ATOM
   1 C1            -0.0167     1.3837     0.0096 C.ar    
   2 C2             0.0021    -0.0041     0.0020 C.ar    
   3 C3             1.1967    -0.6906    -0.0126 C.ar    
   4 C4             2.3970     0.0119    -0.0203 C.ar    
   5 C5             2.3725     1.4187    -0.0129 C.ar    
   6 C6             1.1508     2.0939     0.0023 C.ar    
   7 N7             3.7195    -0.3711    -0.0350 N.pl3   
   8 C8             4.5243     0.7355    -0.0372 C.2     
   9 C9             3.7731     1.8479    -0.0243 C.2     
  10 C10            4.2753     3.2687    -0.0220 C.3     
  11 C11            4.3401     3.7844     1.4170 C.3     
  12 N12            5.3426     3.0167     2.1676 N.3     
  13 C13            4.7240     5.2417     1.4115 C.2     
  14 O14            3.7984     6.1787     1.1529 O.3     
  15 O15            5.8651     5.5666     1.6400 O.2     
  16 C16            4.1942    -1.7571    -0.0461 C.3     
  17 H17           -0.9617     1.9065     0.0169 H       
  18 H18           -0.9290    -0.5514     0.0080 H       
  19 H19            1.2009    -1.7706    -0.0177 H       
  20 H20            1.1284     3.1736     0.0080 H       
  21 H21            5.6041     0.7167    -0.0474 H       
  22 H22            5.2705     3.3031    -0.4654 H       
  23 H23            3.5973     3.8947    -0.6022 H       
  24 H24            3.3646     3.6675     1.8891 H       
  25 H25            6.2562     3.1090     1.7495 H       
  26 H26            5.3591     3.2946     3.1375 H       
  27 H27            4.0922     7.0999     1.1606 H       
  28 H28            4.3019    -2.0960    -1.0765 H       
  29 H29            5.1589    -1.8147     0.4581 H       
  30 H30            3.4751    -2.3916     0.4718 H       
@<TRIPOS>BOND
   1    1    2 ar
   2    1    6 ar
   3    1   17 1
   4    2    3 ar
   5    2   18 1
   6    3    4 ar
   7    3   19 1
   8    4    5 ar
   9    4    7 1
  10    5    6 ar
  11    5    9 1
  12    6   20 1
  13    7    8 1
  14    7   16 1
  15    8    9 2
  16    8   21 1
  17    9   10 1
  18   10   11 1
  19   10   22 1
  20   10   23 1
  21   11   12 1
  22   11   13 1
  23   11   24 1
  24   12   25 1
  25   12   26 1
  26   13   14 1
  27   13   15 2
  28   14   27 1
  29   16   28 1
  30   16   29 1
  31   16   30 1

#	End of record

