#	Name: ASD03731638
#	Creating user name:	WinNT
#	Creation time:	15. 06. 2019 20:46

#	Modifying user name:	WinNT
#	Modification time:	15. 06. 2019 20:46

#	Program:	/corina/corina34_cracker 3.40 0067  02.08.2006

@<TRIPOS>MOLECULE
ASD03731638
  36   37    0    0    0
SMALL
NO_CHARGES


@<TRIPOS>ATOM
   1 C1            -0.4036     1.1045    -1.9603 C.2     
   2 C2            -0.2821    -0.2736    -1.4500 C.ar    
   3 C3             0.9017    -0.9938    -1.6484 C.ar    
   4 C4             1.0106    -2.2837    -1.1688 C.ar    
   5 C5            -0.0518    -2.8662    -0.4908 C.ar    
   6 C6            -1.2312    -2.1530    -0.2914 C.ar    
   7 C7            -1.3469    -0.8629    -0.7615 C.ar    
   8 O8             0.5254     1.6169    -2.5544 O.2     
   9 N9            -1.5464     1.7941    -1.7730 N.am    
  10 S10           -1.6829     3.3417    -2.3460 S.o2    
  11 O11           -2.9851     3.7489    -1.9490 O.2     
  12 O12           -0.5261     4.0020    -1.8510 O.2     
  13 C13           -1.5929     3.1663    -4.1493 C.3     
  14 F14           -2.2618    -2.7252     0.3686 F       
  15 F15            1.9357    -0.4277    -2.3084 F       
  16 O16            0.0593    -4.1350    -0.0213 O.3     
  17 C17            1.2618    -4.7566    -0.1412 C.ar    
  18 C18            2.2134    -4.6280     0.8607 C.ar    
  19 C19            3.4349    -5.2605     0.7370 C.ar    
  20 C20            3.7104    -6.0218    -0.3854 C.ar    
  21 C21            2.7631    -6.1514    -1.3854 C.ar    
  22 C22            1.5377    -5.5253    -1.2626 C.ar    
  23 C23            4.4686    -5.1211     1.8247 C.3     
  24 Cl24           5.2470    -6.8150    -0.5391 Cl      
  25 H25            1.9232    -2.8406    -1.3215 H       
  26 H26           -2.2603    -0.3091    -0.6020 H       
  27 H27           -2.2889     1.3838    -1.3025 H       
  28 H28           -2.4092     2.5314    -4.4937 H       
  29 H29           -1.6755     4.1486    -4.6145 H       
  30 H30           -0.6400     2.7135    -4.4232 H       
  31 H31            1.9991    -4.0333     1.7364 H       
  32 H32            2.9800    -6.7459    -2.2605 H       
  33 H33            0.7966    -5.6306    -2.0412 H       
  34 H34            4.3355    -5.9178     2.5566 H       
  35 H35            5.4656    -5.1904     1.3895 H       
  36 H36            4.3525    -4.1544     2.3146 H       
@<TRIPOS>BOND
   1    1    2 1
   2    1    8 2
   3    1    9 am
   4    2    3 ar
   5    2    7 ar
   6    3    4 ar
   7    3   15 1
   8    4    5 ar
   9    4   25 1
  10    5    6 ar
  11    5   16 1
  12    6    7 ar
  13    6   14 1
  14    7   26 1
  15    9   10 am
  16    9   27 1
  17   10   11 2
  18   10   12 2
  19   10   13 1
  20   13   28 1
  21   13   29 1
  22   13   30 1
  23   16   17 1
  24   17   18 ar
  25   17   22 ar
  26   18   19 ar
  27   18   31 1
  28   19   20 ar
  29   19   23 1
  30   20   21 ar
  31   20   24 1
  32   21   22 ar
  33   21   32 1
  34   22   33 1
  35   23   34 1
  36   23   35 1
  37   23   36 1

#	End of record

