#	Name: ASD03731328
#	Creating user name:	WinNT
#	Creation time:	15. 06. 2019 20:45

#	Modifying user name:	WinNT
#	Modification time:	15. 06. 2019 20:45

#	Program:	/corina/corina34_cracker 3.40 0067  02.08.2006

@<TRIPOS>MOLECULE
ASD03731328
  68   74    0    0    0
SMALL
NO_CHARGES


@<TRIPOS>ATOM
   1 C1            -0.0182     1.4735     0.0148 C.2     
   2 C2             0.0014    -0.0045     0.0118 C.ar    
   3 C3             1.2177    -0.6894     0.0014 C.ar    
   4 C4             1.2289    -2.0689    -0.0015 C.ar    
   5 C5             0.0382    -2.7735     0.0060 C.ar    
   6 C6            -1.1708    -2.1008     0.0164 C.ar    
   7 C7            -1.1962    -0.7215     0.0251 C.ar    
   8 O8             1.0264     2.0953     0.0082 O.2     
   9 N9            -1.1942     2.1319     0.0193 N.am    
  10 C10           -1.2149     3.5256     0.1325 C.ar    
  11 C11           -2.1829     4.2639    -0.5360 C.ar    
  12 C12           -2.2006     5.6401    -0.4222 C.ar    
  13 C13           -1.2556     6.2832     0.3561 C.ar    
  14 C14           -0.2904     5.5511     1.0231 C.ar    
  15 C15           -0.2710     4.1741     0.9184 C.ar    
  16 C16           -1.2773     7.7851     0.4773 C.3     
  17 C17           -2.1560     8.1885     1.6631 C.3     
  18 C18           -2.1780     9.7134     1.7861 C.3     
  19 C19            0.0582    -4.2803     0.0024 C.3     
  20 O20           -2.0706    -1.5135     6.2876 O.3     
  21 C21           -2.3009    -1.5941     7.7066 C.3     
  22 O22           -2.7999    -2.9312     7.8969 O.3     
  23 C23           -2.2725    -3.6674     6.8748 C.ar    
  24 C24           -1.8251    -2.7951     5.8852 C.ar    
  25 C25           -2.1348    -5.0336     6.7066 C.ar    
  26 C26           -1.5524    -5.5465     5.5515 C.ar    
  27 C27           -1.1169    -4.6656     4.5663 C.ar    
  28 C28           -1.2472    -3.3027     4.7337 C.ar    
  29 O29           -1.3091    -6.8414     5.1989 O.3     
  30 C30           -0.5689    -5.5103     3.4473 C.3     
  31 C31           -1.0948    -6.9142     3.7761 C.3     
  32 N32            0.0752    -4.7718     1.3824 N.am    
  33 C33           -1.0343    -5.0396     2.0995 C.2     
  34 C34            0.9294    -5.4742     3.3857 C.ar    
  35 C35            1.9262    -5.7831     4.2841 C.ar    
  36 C36            3.2539    -5.6432     3.9212 C.ar    
  37 C37            3.5773    -5.1917     2.6545 C.ar    
  38 C38            2.5824    -4.8801     1.7514 C.ar    
  39 C39            1.2432    -5.0184     2.1080 C.ar    
  40 O40           -2.1832    -4.9234     1.7287 O.2     
  41 H41            2.1479    -0.1406    -0.0048 H       
  42 H42            2.1692    -2.6001    -0.0099 H       
  43 H43           -2.0967    -2.6567     0.0222 H       
  44 H44           -2.1405    -0.1976     0.0377 H       
  45 H45           -2.0262     1.6390    -0.0560 H       
  46 H46           -2.9208     3.7623    -1.1446 H       
  47 H47           -2.9530     6.2148    -0.9418 H       
  48 H48            0.4464     6.0564     1.6298 H       
  49 H49            0.4803     3.6026     1.4431 H       
  50 H50           -0.2630     8.1516     0.6355 H       
  51 H51           -1.6812     8.2177    -0.4380 H       
  52 H52           -3.1703     7.8220     1.5049 H       
  53 H53           -1.7520     7.7559     2.5784 H       
  54 H54           -2.8040    10.0007     2.6309 H       
  55 H55           -1.1637    10.0798     1.9443 H       
  56 H56           -2.5820    10.1459     0.8708 H       
  57 H57           -0.8308    -4.6543    -0.5055 H       
  58 H58            0.9489    -4.6306    -0.5191 H       
  59 H59           -1.3695    -1.4513     8.2545 H       
  60 H60           -3.0449    -0.8601     8.0161 H       
  61 H61           -2.4816    -5.7065     7.4768 H       
  62 H62           -0.8978    -2.6297     3.9647 H       
  63 H63           -0.3501    -7.6728     3.5351 H       
  64 H64           -2.0310    -7.1092     3.2531 H       
  65 H65            1.6714    -6.1353     5.2728 H       
  66 H66            4.0360    -5.8862     4.6252 H       
  67 H67            4.6137    -5.0824     2.3712 H       
  68 H68            2.8428    -4.5277     0.7643 H       
@<TRIPOS>BOND
   1    1    2 1
   2    1    8 2
   3    1    9 am
   4    2    3 ar
   5    2    7 ar
   6    3    4 ar
   7    3   41 1
   8    4    5 ar
   9    4   42 1
  10    5    6 ar
  11    5   19 1
  12    6    7 ar
  13    6   43 1
  14    7   44 1
  15    9   10 1
  16    9   45 1
  17   10   11 ar
  18   10   15 ar
  19   11   12 ar
  20   11   46 1
  21   12   13 ar
  22   12   47 1
  23   13   14 ar
  24   13   16 1
  25   14   15 ar
  26   14   48 1
  27   15   49 1
  28   16   17 1
  29   16   50 1
  30   16   51 1
  31   17   18 1
  32   17   52 1
  33   17   53 1
  34   18   54 1
  35   18   55 1
  36   18   56 1
  37   19   32 1
  38   19   57 1
  39   19   58 1
  40   20   21 1
  41   20   24 1
  42   21   22 1
  43   21   59 1
  44   21   60 1
  45   22   23 1
  46   23   24 ar
  47   23   25 ar
  48   24   28 ar
  49   25   26 ar
  50   25   61 1
  51   26   27 ar
  52   26   29 1
  53   27   28 ar
  54   27   30 1
  55   28   62 1
  56   29   31 1
  57   30   31 1
  58   30   33 1
  59   30   34 1
  60   31   63 1
  61   31   64 1
  62   32   33 am
  63   32   39 1
  64   33   40 2
  65   34   35 ar
  66   34   39 ar
  67   35   36 ar
  68   35   65 1
  69   36   37 ar
  70   36   66 1
  71   37   38 ar
  72   37   67 1
  73   38   39 ar
  74   38   68 1

#	End of record

