#	Name: ASD01230811
#	Creating user name:	WinNT
#	Creation time:	15. 06. 2019 19:15

#	Modifying user name:	WinNT
#	Modification time:	15. 06. 2019 19:15

#	Program:	/corina/corina34_cracker 3.40 0067  02.08.2006

@<TRIPOS>MOLECULE
ASD01230811
  36   39    0    0    0
SMALL
NO_CHARGES


@<TRIPOS>ATOM
   1 C1            -0.0166     1.3745     0.0096 C.2     
   2 C2             0.0021    -0.0041     0.0020 C.2     
   3 C3            -1.2142    -0.6998     0.0078 C.2     
   4 C4            -2.3848    -0.0387     0.0095 C.2     
   5 N5            -2.4625     1.3314    -0.0002 N.pl3   
   6 C6            -1.3178     2.0765     0.0320 C.2     
   7 C7            -3.8102     1.9043    -0.0512 C.3     
   8 C8            -3.8793     3.1901     0.7778 C.3     
   9 S9            -2.6230     4.3264     0.1103 S.o2    
  10 N10           -1.2627     3.3851     0.0815 N.am    
  11 C11            1.2488     2.1414     0.0016 C.ar    
  12 O12           -2.8872     4.6253    -1.2536 O.2     
  13 O13           -2.3230     5.3526     1.0463 O.2     
  14 C14            2.0798     2.0629    -1.0968 C.ar    
  15 C15            3.2849     2.7930    -1.1061 C.ar    
  16 C16            3.6194     3.6205     0.0639 C.ar    
  17 C17            2.7247     3.6580     1.1566 C.ar    
  18 C18            1.5778     2.9415     1.1134 C.ar    
  19 N19            4.2747     2.9362    -1.9702 N.2     
  20 N20            5.2277     3.8062    -1.4284 N.pl3   
  21 C21            4.8358     4.2146    -0.2134 C.2     
  22 C22            6.4702     4.2103    -2.0911 C.3     
  23 H23            0.9399    -0.5396    -0.0086 H       
  24 H24           -1.2112    -1.7798     0.0105 H       
  25 H25           -3.3017    -0.6093     0.0186 H       
  26 H26           -4.0661     2.1298    -1.0865 H       
  27 H27           -4.5234     1.1818     0.3457 H       
  28 H28           -4.8694     3.6371     0.6882 H       
  29 H29           -3.6632     2.9701     1.8232 H       
  30 H30            1.8092     1.4471    -1.9418 H       
  31 H31            2.9544     4.2596     2.0236 H       
  32 H32            0.9017     2.9781     1.9548 H       
  33 H33            5.3755     4.8895     0.4345 H       
  34 H34            6.2916     5.1093    -2.6809 H       
  35 H35            7.2330     4.4143    -1.3396 H       
  36 H36            6.8105     3.4079    -2.7456 H       
@<TRIPOS>BOND
   1    1    2 2
   2    1   11 1
   3    1    6 1
   4    2    3 1
   5    2   23 1
   6    3    4 2
   7    3   24 1
   8    4    5 1
   9    4   25 1
  10    5    6 1
  11    5    7 1
  12    6   10 2
  13    7    8 1
  14    7   26 1
  15    7   27 1
  16    8    9 1
  17    8   28 1
  18    8   29 1
  19    9   10 am
  20    9   12 2
  21    9   13 2
  22   11   14 ar
  23   11   18 ar
  24   14   15 ar
  25   14   30 1
  26   15   16 ar
  27   15   19 2
  28   16   17 ar
  29   16   21 2
  30   17   18 ar
  31   17   31 1
  32   18   32 1
  33   19   20 1
  34   20   21 1
  35   20   22 1
  36   21   33 1
  37   22   34 1
  38   22   35 1
  39   22   36 1

#	End of record

