#	Name: ASD00650002
#	Creating user name:	WinNT
#	Creation time:	15. 06. 2019 18:36

#	Modifying user name:	WinNT
#	Modification time:	15. 06. 2019 18:36

#	Program:	/corina/corina34_cracker 3.40 0067  02.08.2006

@<TRIPOS>MOLECULE
ASD00650002
  30   31    0    0    0
SMALL
NO_CHARGES


@<TRIPOS>ATOM
   1 C1            -0.4359     1.3419     0.1327 C.ar    
   2 C2            -0.4079    -0.0396     0.1055 C.ar    
   3 C3            -1.5703    -0.7546    -0.1197 C.ar    
   4 C4            -2.7698    -0.0955    -0.3191 C.ar    
   5 C5            -2.8163     1.2856    -0.2953 C.ar    
   6 C6            -1.6461     2.0171    -0.0623 C.ar    
   7 F7             0.7007     2.0384     0.3524 F       
   8 F8            -3.9889     1.9275    -0.4908 F       
   9 C9            -1.6859     3.4908    -0.0350 C.2     
  10 N10           -1.4924     4.1913    -1.1700 N.am    
  11 C11           -1.5287     5.5384    -1.1451 C.2     
  12 N12           -1.3352     6.2389    -2.2801 N.am    
  13 C13           -1.4693     7.6323    -2.2742 C.ar    
  14 C14           -1.0735     8.3643    -1.1626 C.ar    
  15 C15           -1.2068     9.7390    -1.1592 C.ar    
  16 C16           -1.7349    10.3868    -2.2621 C.ar    
  17 C17           -2.1305     9.6596    -3.3710 C.ar    
  18 C18           -1.9931     8.2853    -3.3820 C.ar    
  19 Cl19          -1.9017    12.1147    -2.2545 Cl      
  20 O20           -1.7359     6.1215    -0.0989 O.2     
  21 O21           -1.8931     4.0739     1.0112 O.2     
  22 H22            0.5243    -0.5624     0.2602 H       
  23 H23           -1.5411    -1.8340    -0.1404 H       
  24 H24           -3.6726    -0.6617    -0.4943 H       
  25 H25           -1.3270     3.7260    -2.0049 H       
  26 H26           -1.1031     5.7775    -3.1012 H       
  27 H27           -0.6620     7.8591    -0.3013 H       
  28 H28           -0.8991    10.3088    -0.2949 H       
  29 H29           -2.5430    10.1675    -4.2302 H       
  30 H30           -2.3021     7.7182    -4.2476 H       
@<TRIPOS>BOND
   1    1    2 ar
   2    1    7 1
   3    1    6 ar
   4    2    3 ar
   5    2   22 1
   6    3    4 ar
   7    3   23 1
   8    4    5 ar
   9    4   24 1
  10    5    6 ar
  11    5    8 1
  12    6    9 1
  13    9   10 am
  14    9   21 2
  15   10   11 am
  16   10   25 1
  17   11   12 am
  18   11   20 2
  19   12   13 1
  20   12   26 1
  21   13   14 ar
  22   13   18 ar
  23   14   15 ar
  24   14   27 1
  25   15   16 ar
  26   15   28 1
  27   16   17 ar
  28   16   19 1
  29   17   18 ar
  30   17   29 1
  31   18   30 1

#	End of record

