#	Name: ASD01200173
#	Creating user name:	WinNT
#	Creation time:	15. 06. 2019 19:08

#	Modifying user name:	WinNT
#	Modification time:	15. 06. 2019 19:08

#	Program:	/corina/corina34_cracker 3.40 0067  02.08.2006

@<TRIPOS>MOLECULE
ASD01200173
  55   57    0    0    0
SMALL
NO_CHARGES


@<TRIPOS>ATOM
   1 C1             0.9789     1.3638    -1.7311 C.2     
   2 C2             0.8671    -0.1358    -1.6319 C.3     
   3 O3             1.5853     1.9840    -0.8836 O.2     
   4 N4             0.4096     2.0151    -2.7647 N.am    
   5 C5             0.4226     3.4085    -2.8027 C.ar    
   6 C6            -0.0634     4.0716    -3.9240 C.ar    
   7 C7            -0.0447     5.4548    -3.9486 C.ar    
   8 C8             0.4615     6.1301    -2.8462 C.ar    
   9 C9             0.9278     5.4072    -1.7662 C.ar    
  10 N10            0.8924     4.0883    -1.7688 N.ar    
  11 S11            1.7365    -0.7100    -0.1470 S.3     
  12 N12            2.5850    -3.2590    -0.4093 N.am    
  13 C13            1.3697    -2.4863    -0.1206 C.3     
  14 C14            0.9321    -2.9076     1.2630 C.2     
  15 C15            1.8082    -3.8116     1.6896 C.2     
  16 C16            2.8318    -4.0343     0.6633 C.2     
  17 O17            3.7660    -4.8061     0.7658 O.2     
  18 C18            1.7570    -4.5042     3.0270 C.3     
  19 C19           -0.2697    -2.3989     2.0166 C.3     
  20 C20            3.3783    -3.2014    -1.6396 C.3     
  21 C21            4.4430    -2.1439    -1.5016 C.ar    
  22 C22            5.6841    -2.4770    -0.9907 C.ar    
  23 C23            6.6640    -1.5062    -0.8633 C.ar    
  24 C24            6.3960    -0.1962    -1.2503 C.ar    
  25 C25            5.1507     0.1308    -1.7613 C.ar    
  26 C26            4.1788    -0.8444    -1.8912 C.ar    
  27 O27            7.3545     0.7605    -1.1267 O.3     
  28 C28            7.0089     2.0828    -1.5439 C.3     
  29 O29            7.8849    -1.8320    -0.3607 O.3     
  30 C30            8.0885    -3.1953     0.0162 C.3     
  31 H31           -0.1837    -0.4185    -1.5698 H       
  32 H32            1.3148    -0.5926    -2.5145 H       
  33 H33           -0.0090     1.5142    -3.4821 H       
  34 H34           -0.4499     3.5144    -4.7646 H       
  35 H35           -0.4152     5.9970    -4.8060 H       
  36 H36            0.4907     7.2096    -2.8337 H       
  37 H37            1.3229     5.9281    -0.9065 H       
  38 H38            0.5934    -2.7203    -0.8492 H       
  39 H39            1.1718    -5.4196     2.9400 H       
  40 H40            2.7694    -4.7493     3.3482 H       
  41 H41            1.2929    -3.8446     3.7602 H       
  42 H42           -1.1095    -3.0760     1.8610 H       
  43 H43           -0.0366    -2.3476     3.0802 H       
  44 H44           -0.5321    -1.4051     1.6538 H       
  45 H45            3.8480    -4.1692    -1.8147 H       
  46 H46            2.7287    -2.9555    -2.4796 H       
  47 H47            5.8894    -3.4940    -0.6908 H       
  48 H48            4.9402     1.1464    -2.0623 H       
  49 H49            3.2098    -0.5891    -2.2938 H       
  50 H50            7.8606     2.7459    -1.3922 H       
  51 H51            6.7404     2.0720    -2.6002 H       
  52 H52            6.1621     2.4392    -0.9574 H       
  53 H53            7.3708    -3.4697     0.7893 H       
  54 H54            7.9489    -3.8374    -0.8535 H       
  55 H55            9.1011    -3.3188     0.4002 H       
@<TRIPOS>BOND
   1    1    2 1
   2    1    3 2
   3    1    4 am
   4    2   11 1
   5    2   31 1
   6    2   32 1
   7    4    5 1
   8    4   33 1
   9    5    6 ar
  10    5   10 ar
  11    6    7 ar
  12    6   34 1
  13    7    8 ar
  14    7   35 1
  15    8    9 ar
  16    8   36 1
  17    9   10 ar
  18    9   37 1
  19   11   13 1
  20   12   13 1
  21   12   16 am
  22   12   20 1
  23   13   14 1
  24   13   38 1
  25   14   15 2
  26   14   19 1
  27   15   16 1
  28   15   18 1
  29   16   17 2
  30   18   39 1
  31   18   40 1
  32   18   41 1
  33   19   42 1
  34   19   43 1
  35   19   44 1
  36   20   21 1
  37   20   45 1
  38   20   46 1
  39   21   22 ar
  40   21   26 ar
  41   22   23 ar
  42   22   47 1
  43   23   24 ar
  44   23   29 1
  45   24   25 ar
  46   24   27 1
  47   25   26 ar
  48   25   48 1
  49   26   49 1
  50   27   28 1
  51   28   50 1
  52   28   51 1
  53   28   52 1
  54   29   30 1
  55   30   53 1
  56   30   54 1
  57   30   55 1

#	End of record

