#	Name: ASD03320223
#	Creating user name:	WinNT
#	Creation time:	15. 06. 2019 20:36

#	Modifying user name:	WinNT
#	Modification time:	15. 06. 2019 20:36

#	Program:	/corina/corina34_cracker 3.40 0067  02.08.2006

@<TRIPOS>MOLECULE
ASD03320223
  36   38    0    0    0
SMALL
NO_CHARGES


@<TRIPOS>ATOM
   1 C1            -0.0074     1.3432    -0.1945 C.ar    
   2 C2             0.0219    -0.0349     0.0267 C.ar    
   3 N3            -1.0901    -0.7409     0.0432 N.ar    
   4 C4            -2.2723    -0.1877    -0.1456 C.ar    
   5 C5            -2.3928     1.1862    -0.3740 C.ar    
   6 C6            -1.2403     1.9729    -0.3938 C.ar    
   7 C7             1.2457     2.1264    -0.2117 C.2     
   8 O8             1.2101     3.3261    -0.4051 O.2     
   9 N9             2.4280     1.5107    -0.0130 N.am    
  10 C10            3.6218     2.2339    -0.1262 C.ar    
  11 C11           -3.7234     1.7982    -0.5858 C.2     
  12 C12            3.6733     3.5587     0.2867 C.ar    
  13 C13            4.8508     4.2711     0.1747 C.ar    
  14 C14            5.9822     3.6638    -0.3502 C.ar    
  15 C15            5.9316     2.3403    -0.7629 C.ar    
  16 C16            4.7563     1.6248    -0.6462 C.ar    
  17 O17            7.1412     4.3661    -0.4606 O.3     
  18 C18            8.2669     3.6781    -1.0098 C.3     
  19 F19            7.9634     3.2475    -2.3058 F       
  20 F20            9.3667     4.5418    -1.0509 F       
  21 F21            8.5726     2.5715    -0.2103 F       
  22 Cl22          -3.6972    -1.1787    -0.1108 Cl      
  23 N23           -4.1482     2.9969    -0.0959 N.pl3   
  24 N24           -5.4645     3.1938    -0.5325 N.2     
  25 C25           -5.8217     2.1618    -1.2541 C.2     
  26 C26           -4.7514     1.2689    -1.3136 C.2     
  27 H27            0.9690    -0.5290     0.1860 H       
  28 H28           -1.2981     3.0373    -0.5671 H       
  29 H29            2.4520     0.5666     0.2084 H       
  30 H30            2.7925     4.0318     0.6950 H       
  31 H31            4.8909     5.3016     0.4955 H       
  32 H32            6.8128     1.8681    -1.1715 H       
  33 H33            4.7171     0.5944    -0.9673 H       
  34 H34           -3.6317     3.6047     0.4561 H       
  35 H35           -6.7827     2.0261    -1.7277 H       
  36 H36           -4.7399     0.3239    -1.8364 H       
@<TRIPOS>BOND
   1    1    2 ar
   2    1    7 1
   3    1    6 ar
   4    2    3 ar
   5    2   27 1
   6    3    4 ar
   7    4    5 ar
   8    4   22 1
   9    5    6 ar
  10    5   11 1
  11    6   28 1
  12    7    8 2
  13    7    9 am
  14    9   10 1
  15    9   29 1
  16   10   12 ar
  17   10   16 ar
  18   11   23 1
  19   11   26 2
  20   12   13 ar
  21   12   30 1
  22   13   14 ar
  23   13   31 1
  24   14   15 ar
  25   14   17 1
  26   15   16 ar
  27   15   32 1
  28   16   33 1
  29   17   18 1
  30   18   19 1
  31   18   20 1
  32   18   21 1
  33   23   24 1
  34   23   34 1
  35   24   25 2
  36   25   26 1
  37   25   35 1
  38   26   36 1

#	End of record

