#	Name: ASD01850006
#	Creating user name:	WinNT
#	Creation time:	15. 06. 2019 19:38

#	Modifying user name:	WinNT
#	Modification time:	15. 06. 2019 19:38

#	Program:	/corina/corina34_cracker 3.40 0067  02.08.2006

@<TRIPOS>MOLECULE
ASD01850006
  48   52    0    0    0
SMALL
NO_CHARGES


@<TRIPOS>ATOM
   1 O1             0.0436     0.0194    -0.2225 O.2     
   2 C2            -0.0144     1.2113     0.0087 C.2     
   3 N3             1.1165     1.9112     0.2273 N.am    
   4 C4             1.2306     3.3742     0.4067 C.3     
   5 C5             2.7447     3.6553     0.5609 C.3     
   6 N6             3.3679     2.4838    -0.0783 N.am    
   7 C7             2.4766     1.3697     0.3405 C.3     
   8 C8             2.7780     0.9361     1.7519 C.ar    
   9 C9             1.7723     0.4159     2.5449 C.ar    
  10 C10            2.0488     0.0181     3.8395 C.ar    
  11 C11            3.3312     0.1401     4.3411 C.ar    
  12 C12            4.3371     0.6594     3.5478 C.ar    
  13 C13            4.0615     1.0531     2.2517 C.ar    
  14 C14            2.7321     0.2675    -0.6484 C.ar    
  15 C15            2.1054    -0.9242    -0.9279 C.ar    
  16 C16            2.6016    -1.7529    -1.9203 C.ar    
  17 C17            3.7282    -1.3865    -2.6347 C.ar    
  18 C18            4.3629    -0.1907    -2.3667 C.ar    
  19 C19            3.8680     0.6512    -1.3725 C.ar    
  20 C20            4.3202     1.9677    -0.8566 C.2     
  21 O21            5.3891     2.4900    -1.1059 O.2     
  22 C22           -1.3250     1.8946     0.0440 C.ar    
  23 C23           -2.5042     1.1546    -0.0574 C.ar    
  24 C24           -3.7239     1.7983    -0.0232 C.ar    
  25 C25           -3.7799     3.1743     0.1107 C.ar    
  26 C26           -2.6148     3.9136     0.2118 C.ar    
  27 C27           -1.3888     3.2818     0.1848 C.ar    
  28 C28           -5.1159     3.8708     0.1463 C.3     
  29 F29           -5.5616     3.9572     1.4695 F       
  30 F30           -4.9852     5.1576    -0.3868 F       
  31 F31           -6.0409     3.1440    -0.6109 F       
  32 H32            0.8378     3.8930    -0.4677 H       
  33 H33            0.6957     3.6870     1.3035 H       
  34 H34            3.0215     4.5715     0.0392 H       
  35 H35            3.0207     3.7119     1.6139 H       
  36 H36            0.7704     0.3207     2.1530 H       
  37 H37            1.2629    -0.3876     4.4593 H       
  38 H38            3.5470    -0.1700     5.3528 H       
  39 H39            5.3389     0.7550     3.9398 H       
  40 H40            4.8475     1.4588     1.6319 H       
  41 H41            1.2256    -1.2142    -0.3727 H       
  42 H42            2.1076    -2.6886    -2.1370 H       
  43 H43            4.1126    -2.0388    -3.4049 H       
  44 H44            5.2421     0.0921    -2.9265 H       
  45 H45           -2.4618     0.0806    -0.1627 H       
  46 H46           -4.6370     1.2270    -0.1016 H       
  47 H47           -2.6654     4.9874     0.3162 H       
  48 H48           -0.4800     3.8600     0.2641 H       
@<TRIPOS>BOND
   1    1    2 2
   2    2    3 am
   3    2   22 1
   4    3    4 1
   5    3    7 1
   6    4    5 1
   7    4   32 1
   8    4   33 1
   9    5    6 1
  10    5   34 1
  11    5   35 1
  12    6    7 1
  13    6   20 am
  14    7    8 1
  15    7   14 1
  16    8    9 ar
  17    8   13 ar
  18    9   10 ar
  19    9   36 1
  20   10   11 ar
  21   10   37 1
  22   11   12 ar
  23   11   38 1
  24   12   13 ar
  25   12   39 1
  26   13   40 1
  27   14   15 ar
  28   14   19 ar
  29   15   16 ar
  30   15   41 1
  31   16   17 ar
  32   16   42 1
  33   17   18 ar
  34   17   43 1
  35   18   19 ar
  36   18   44 1
  37   19   20 1
  38   20   21 2
  39   22   23 ar
  40   22   27 ar
  41   23   24 ar
  42   23   45 1
  43   24   25 ar
  44   24   46 1
  45   25   26 ar
  46   25   28 1
  47   26   27 ar
  48   26   47 1
  49   27   48 1
  50   28   29 1
  51   28   30 1
  52   28   31 1

#	End of record

