#	Name: ASD02500852
#	Creating user name:	WinNT
#	Creation time:	15. 06. 2019 20:23

#	Modifying user name:	WinNT
#	Modification time:	15. 06. 2019 20:23

#	Program:	/corina/corina34_cracker 3.40 0067  02.08.2006

@<TRIPOS>MOLECULE
ASD02500852
  52   55    0    0    0
SMALL
NO_CHARGES


@<TRIPOS>ATOM
   1 C1             2.2244     1.4131     0.5680 C.ar    
   2 C2             2.2500     0.0325     0.5699 C.ar    
   3 C3             1.2143    -0.6806    -0.0202 C.ar    
   4 C4             0.1563    -0.0021    -0.6103 C.ar    
   5 C5             0.1367     1.3791    -0.6089 C.ar    
   6 C6             1.1691     2.0859    -0.0206 C.ar    
   7 C7            -1.0112     2.1162    -1.2491 C.3     
   8 N8             1.2374    -2.0796    -0.0204 N.am    
   9 C9             0.0867    -2.7726     0.0890 C.2     
  10 O10           -0.9574    -2.1873     0.2847 O.2     
  11 C11            0.0973    -4.2747    -0.0318 C.3     
  12 N12           -1.2667    -4.7867     0.1225 N.pl3   
  13 C13           -2.1853    -4.9855    -0.8888 C.ar    
  14 C14           -3.3431    -5.4851    -0.2682 C.ar    
  15 N15           -3.0767    -5.5636     1.0610 N.2     
  16 C16           -1.8608    -5.1599     1.2880 C.2     
  17 C17           -2.1650    -4.7979    -2.2638 C.ar    
  18 C18           -3.2827    -5.1037    -3.0113 C.ar    
  19 C19           -4.4253    -5.5968    -2.3982 C.ar    
  20 C20           -4.4634    -5.7882    -1.0458 C.ar    
  21 C21           -1.2087    -5.1051     2.6455 C.3     
  22 N22           -0.5376    -6.3788     2.9167 N.am    
  23 C23            0.1177    -6.5609     4.0802 C.2     
  24 C24            0.7949    -7.8463     4.3539 C.ar    
  25 O25            0.1519    -5.6683     4.9046 O.2     
  26 C26            1.4745    -8.0381     5.5579 C.ar    
  27 C27            2.1044    -9.2399     5.8070 C.ar    
  28 C28            2.0635   -10.2539     4.8665 C.ar    
  29 C29            1.3920   -10.0701     3.6708 C.ar    
  30 C30            0.7527    -8.8753     3.4118 C.ar    
  31 H31            3.0272     1.9681     1.0306 H       
  32 H32            3.0745    -0.4923     1.0293 H       
  33 H33           -0.6503    -0.5537    -1.0703 H       
  34 H34            1.1516     3.1658    -0.0211 H       
  35 H35           -1.7925     2.2858    -0.5082 H       
  36 H36           -0.6595     3.0742    -1.6320 H       
  37 H37           -1.4120     1.5218    -2.0702 H       
  38 H38            2.0817    -2.5507    -0.0993 H       
  39 H39            0.4830    -4.5578    -1.0112 H       
  40 H40            0.7340    -4.6973     0.7455 H       
  41 H41           -1.2782    -4.4140    -2.7460 H       
  42 H42           -3.2686    -4.9579    -4.0814 H       
  43 H43           -5.2936    -5.8318    -2.9959 H       
  44 H44           -5.3579    -6.1730    -0.5789 H       
  45 H45           -0.4769    -4.2975     2.6647 H       
  46 H46           -1.9682    -4.9253     3.4064 H       
  47 H47           -0.5650    -7.0911     2.2588 H       
  48 H48            1.5074    -7.2473     6.2927 H       
  49 H49            2.6308    -9.3895     6.7380 H       
  50 H50            2.5582   -11.1928     5.0664 H       
  51 H51            1.3641   -10.8654     2.9407 H       
  52 H52            0.2286    -8.7332     2.4783 H       
@<TRIPOS>BOND
   1    1    2 ar
   2    1    6 ar
   3    1   31 1
   4    2    3 ar
   5    2   32 1
   6    3    4 ar
   7    3    8 1
   8    4    5 ar
   9    4   33 1
  10    5    6 ar
  11    5    7 1
  12    6   34 1
  13    7   35 1
  14    7   36 1
  15    7   37 1
  16    8    9 am
  17    8   38 1
  18    9   10 2
  19    9   11 1
  20   11   12 1
  21   11   39 1
  22   11   40 1
  23   12   13 1
  24   12   16 1
  25   13   14 ar
  26   13   17 ar
  27   14   15 1
  28   14   20 ar
  29   15   16 2
  30   16   21 1
  31   17   18 ar
  32   17   41 1
  33   18   19 ar
  34   18   42 1
  35   19   20 ar
  36   19   43 1
  37   20   44 1
  38   21   22 1
  39   21   45 1
  40   21   46 1
  41   22   23 am
  42   22   47 1
  43   23   24 1
  44   23   25 2
  45   24   26 ar
  46   24   30 ar
  47   26   27 ar
  48   26   48 1
  49   27   28 ar
  50   27   49 1
  51   28   29 ar
  52   28   50 1
  53   29   30 ar
  54   29   51 1
  55   30   52 1

#	End of record

