#	Name: ASD03240297
#	Creating user name:	WinNT
#	Creation time:	15. 06. 2019 20:34

#	Modifying user name:	WinNT
#	Modification time:	15. 06. 2019 20:34

#	Program:	/corina/corina34_cracker 3.40 0067  02.08.2006

@<TRIPOS>MOLECULE
ASD03240297
  99  105    0    0    0
SMALL
NO_CHARGES


@<TRIPOS>ATOM
   1 C1             0.4018     2.6213     1.9812 C.2     
   2 N2             0.6372     1.8751     3.1117 N.pl3   
   3 O3            -3.2561     4.1507     1.4821 O.2     
   4 C4            -2.5200     4.4437     0.5638 C.2     
   5 C5            -1.0916     3.9634     0.5603 C.3     
   6 N6            -0.8408     3.1684     1.7650 N.pl3   
   7 N7             1.3583     2.8145     1.1170 N.2     
   8 N8            -2.9796     5.1988    -0.4536 N.am    
   9 C9            -4.3266     5.5489    -0.5079 C.ar    
  10 C10           -4.7065     6.7945    -1.0273 C.ar    
  11 C11           -6.0501     7.1400    -1.0798 C.ar    
  12 C12           -7.0150     6.2452    -0.6151 C.ar    
  13 C13           -6.6267     5.0053    -0.0987 C.ar    
  14 C14           -5.2937     4.6614    -0.0524 C.ar    
  15 C15           -8.4447     6.6078    -0.6682 C.2     
  16 N16           -9.3763     5.7434    -0.2193 N.am    
  17 O17           -8.7821     7.6864    -1.1170 O.2     
  18 C18          -10.7202     6.1331    -0.1552 C.ar    
  19 C19          -11.7246     5.1769    -0.2278 C.ar    
  20 C20          -11.0480     7.4751    -0.0133 C.ar    
  21 C21          -12.3726     7.8593     0.0498 C.ar    
  22 C22          -13.3773     6.9035    -0.0285 C.ar    
  23 C23          -13.0492     5.5608    -0.1647 C.ar    
  24 N24          -14.7195     7.2926     0.0360 N.pl3   
  25 C25          -15.7792     6.2845    -0.0467 C.3     
  26 C26          -15.0654     8.7083     0.1862 C.3     
  27 C27           -3.6756     7.7408    -1.5191 C.ar    
  28 C28           -3.8062     8.3255    -2.7774 C.ar    
  29 C29           -2.8441     9.2057    -3.2296 C.ar    
  30 C30           -1.7518     9.5079    -2.4365 C.ar    
  31 C31           -1.6169     8.9301    -1.1869 C.ar    
  32 C32           -2.5757     8.0530    -0.7221 C.ar    
  33 C33          -15.2103     9.3372    -1.1757 C.ar    
  34 C34          -16.1163     5.7953     1.3383 C.ar    
  35 C35          -16.4255     9.3365    -1.7884 C.ar    
  36 C36          -16.5643     9.9225    -3.0582 C.ar    
  37 C37          -15.4331    10.5062    -3.6813 C.ar    
  38 C38          -14.1944    10.4873    -3.0177 C.ar    
  39 C39          -14.0990     9.9159    -1.7862 C.ar    
  40 C40          -17.0837     6.4287     2.0559 C.ar    
  41 C41          -17.4009     5.9749     3.3476 C.ar    
  42 C42          -16.7061     4.8618     3.8830 C.ar    
  43 C43          -15.7129     4.2337     3.1121 C.ar    
  44 C44          -15.4366     4.6974     1.8628 C.ar    
  45 C45          -18.3933     6.6035     4.1190 C.ar    
  46 C46          -18.6733     6.1364     5.3663 C.ar    
  47 C47          -17.9896     5.0420     5.8929 C.ar    
  48 C48          -17.0232     4.4079     5.1747 C.ar    
  49 C49          -17.8026     9.9407    -3.7224 C.ar    
  50 C50          -17.8991    10.5169    -4.9516 C.ar    
  51 C51          -16.7866    11.0905    -5.5645 C.ar    
  52 C52          -15.5718    11.0924    -4.9511 C.ar    
  53 C53           -0.7047    10.4697    -2.9359 C.3     
  54 C54           -0.6129    11.6634    -1.9833 C.3     
  55 C55            0.6501     9.7615    -2.9981 C.3     
  56 H56            1.5150     1.4925     3.2662 H       
  57 H57           -0.0746     1.7313     3.7548 H       
  58 H58           -0.9169     3.3494    -0.3232 H       
  59 H59           -0.4198     4.8216     0.5450 H       
  60 H60           -1.5515     3.0279     2.4100 H       
  61 H61            1.1922     3.3409     0.3194 H       
  62 H62           -2.3722     5.4985    -1.1480 H       
  63 H63           -6.3477     8.0985    -1.4788 H       
  64 H64           -7.3742     4.3136     0.2607 H       
  65 H65           -4.9988     3.7024     0.3474 H       
  66 H66           -9.1161     4.8515     0.0594 H       
  67 H67          -11.4695     4.1328    -0.3341 H       
  68 H68          -10.2667     8.2182     0.0479 H       
  69 H69          -12.6275     8.9029     0.1605 H       
  70 H70          -13.8304     4.8175    -0.2260 H       
  71 H71          -16.6659     6.7258    -0.5019 H       
  72 H72          -15.4373     5.4469    -0.6546 H       
  73 H73          -16.0063     8.7968     0.7292 H       
  74 H74          -14.2770     9.2182     0.7398 H       
  75 H75           -4.6584     8.0900    -3.3976 H       
  76 H76           -2.9441     9.6591    -4.2047 H       
  77 H77           -0.7618     9.1694    -0.5721 H       
  78 H78           -2.4693     7.6025     0.2536 H       
  79 H79          -17.2786     8.8877    -1.3015 H       
  80 H80          -13.3239    10.9283    -3.4804 H       
  81 H81          -13.1460     9.9029    -1.2782 H       
  82 H82          -17.6048     7.2760     1.6350 H       
  83 H83          -15.1752     3.3845     3.5072 H       
  84 H84          -14.6731     4.2127     1.2723 H       
  85 H85          -18.9308     7.4530     3.7242 H       
  86 H86          -19.4364     6.6214     5.9570 H       
  87 H87          -18.2307     4.6918     6.8857 H       
  88 H88          -16.5019     3.5608     5.5956 H       
  89 H89          -18.6731     9.4993    -3.2600 H       
  90 H90          -18.8520    10.5294    -5.4598 H       
  91 H91          -16.8902    11.5407    -6.5408 H       
  92 H92          -14.7185    11.5409    -5.4380 H       
  93 H93           -0.9779    10.8195    -3.9315 H       
  94 H94           -0.3397    11.3137    -0.9877 H       
  95 H95            0.1444    12.3592    -2.3445 H       
  96 H96           -1.5781    12.1680    -1.9390 H       
  97 H97            0.9233     9.4118    -2.0026 H       
  98 H98            0.5847     8.9111    -3.6768 H       
  99 H99            1.4075    10.4572    -3.3593 H       
@<TRIPOS>BOND
   1    1    2 1
   2    1    7 2
   3    1    6 1
   4    2   56 1
   5    2   57 1
   6    3    4 2
   7    4    5 1
   8    4    8 am
   9    5    6 1
  10    5   58 1
  11    5   59 1
  12    6   60 1
  13    7   61 1
  14    8    9 1
  15    8   62 1
  16    9   10 ar
  17    9   14 ar
  18   10   11 ar
  19   10   27 1
  20   11   12 ar
  21   11   63 1
  22   12   13 ar
  23   12   15 1
  24   13   14 ar
  25   13   64 1
  26   14   65 1
  27   15   16 am
  28   15   17 2
  29   16   18 1
  30   16   66 1
  31   18   19 ar
  32   18   20 ar
  33   19   23 ar
  34   19   67 1
  35   20   21 ar
  36   20   68 1
  37   21   22 ar
  38   21   69 1
  39   22   23 ar
  40   22   24 1
  41   23   70 1
  42   24   25 1
  43   24   26 1
  44   25   34 1
  45   25   71 1
  46   25   72 1
  47   26   33 1
  48   26   73 1
  49   26   74 1
  50   27   28 ar
  51   27   32 ar
  52   28   29 ar
  53   28   75 1
  54   29   30 ar
  55   29   76 1
  56   30   31 ar
  57   30   53 1
  58   31   32 ar
  59   31   77 1
  60   32   78 1
  61   33   35 ar
  62   33   39 ar
  63   34   40 ar
  64   34   44 ar
  65   35   36 ar
  66   35   79 1
  67   36   37 ar
  68   36   49 ar
  69   37   38 ar
  70   37   52 ar
  71   38   39 ar
  72   38   80 1
  73   39   81 1
  74   40   41 ar
  75   40   82 1
  76   41   42 ar
  77   41   45 ar
  78   42   43 ar
  79   42   48 ar
  80   43   44 ar
  81   43   83 1
  82   44   84 1
  83   45   46 ar
  84   45   85 1
  85   46   47 ar
  86   46   86 1
  87   47   48 ar
  88   47   87 1
  89   48   88 1
  90   49   50 ar
  91   49   89 1
  92   50   51 ar
  93   50   90 1
  94   51   52 ar
  95   51   91 1
  96   52   92 1
  97   53   54 1
  98   53   55 1
  99   53   93 1
 100   54   94 1
 101   54   95 1
 102   54   96 1
 103   55   97 1
 104   55   98 1
 105   55   99 1

#	End of record

