#	Name: ASD03730088
#	Creating user name:	WinNT
#	Creation time:	15. 06. 2019 20:43

#	Modifying user name:	WinNT
#	Modification time:	15. 06. 2019 20:43

#	Program:	/corina/corina34_cracker 3.40 0067  02.08.2006

@<TRIPOS>MOLECULE
ASD03730088
  55   60    0    0    0
SMALL
NO_CHARGES


@<TRIPOS>ATOM
   1 C1            -0.4818     0.1465     1.4213 C.2     
   2 C2             0.0021    -0.0041     0.0020 C.3     
   3 O3             0.3053     0.0742     2.3412 O.2     
   4 N4            -1.7883     0.3670     1.6680 N.am    
   5 O5             6.5424    -0.6778     2.8285 O.3     
   6 C6             7.6554    -1.3684     3.1238 C.2     
   7 O7             7.6626    -2.5164     2.4272 O.3     
   8 C8             6.5364    -2.5638     1.6711 C.ar    
   9 C9             5.8229    -1.3950     1.9286 C.ar    
  10 C10            6.0409    -3.4949     0.7760 C.ar    
  11 C11            4.8290    -3.2732     0.1313 C.ar    
  12 C12            4.1180    -2.1063     0.4058 C.ar    
  13 C13            4.6129    -1.1739     1.2918 C.ar    
  14 O14            4.1801    -4.0413    -0.7903 O.3     
  15 C15            2.8568    -2.1755    -0.4086 C.3     
  16 C16            2.7972    -3.6406    -0.8547 C.3     
  17 N17            1.4272    -0.3604     0.0057 N.3     
  18 C18            1.6197    -1.7761     0.4009 C.3     
  19 C19            2.8640    -1.2270    -1.5733 C.ar    
  20 C20            3.5361    -1.2369    -2.7782 C.ar    
  21 C21            3.3442    -0.2171    -3.6914 C.ar    
  22 C22            2.4757     0.8181    -3.3966 C.ar    
  23 C23            1.8029     0.8372    -2.1930 C.ar    
  24 C24            1.9924    -0.1843    -1.2650 C.ar    
  25 O25            8.5202    -1.0106     3.8987 O.2     
  26 C26           -2.2587     0.5133     3.0477 C.3     
  27 C27           -3.7470     0.7499     3.0486 C.ar    
  28 C28           -4.6163    -0.3150     2.9017 C.ar    
  29 C29           -5.9813    -0.0980     2.9025 C.ar    
  30 C30           -6.4774     1.1840     3.0506 C.ar    
  31 C31           -5.6083     2.2485     3.1983 C.ar    
  32 C32           -4.2430     2.0309     3.2019 C.ar    
  33 C33           -4.0756    -1.7124     2.7402 C.3     
  34 H34           -0.5676    -0.7895    -0.4947 H       
  35 H35           -0.1357     0.9369    -0.5306 H       
  36 H36           -2.4172     0.4288     0.9321 H       
  37 H37            6.5982    -4.3982     0.5768 H       
  38 H38            4.0564    -0.2698     1.4900 H       
  39 H39            2.4180    -3.7201    -1.8735 H       
  40 H40            2.1907    -4.2303    -0.1674 H       
  41 H41            0.7579    -2.3792     0.1149 H       
  42 H42            1.8134    -1.8573     1.4704 H       
  43 H43            4.2145    -2.0450    -3.0090 H       
  44 H44            3.8720    -0.2284    -4.6335 H       
  45 H45            2.3243     1.6140    -4.1108 H       
  46 H46            1.1255     1.6479    -1.9689 H       
  47 H47           -2.0350    -0.3956     3.6062 H       
  48 H48           -1.7559     1.3600     3.5151 H       
  49 H49           -6.6604    -0.9298     2.7870 H       
  50 H50           -7.5440     1.3537     3.0505 H       
  51 H51           -5.9958     3.2500     3.3137 H       
  52 H52           -3.5639     2.8622     3.3211 H       
  53 H53           -3.9643    -2.1744     3.7211 H       
  54 H54           -4.7664    -2.3018     2.1372 H       
  55 H55           -3.1052    -1.6715     2.2455 H       
@<TRIPOS>BOND
   1    1    2 1
   2    1    3 2
   3    1    4 am
   4    2   17 1
   5    2   34 1
   6    2   35 1
   7    4   26 1
   8    4   36 1
   9    5    6 1
  10    5    9 1
  11    6    7 1
  12    6   25 2
  13    7    8 1
  14    8    9 ar
  15    8   10 ar
  16    9   13 ar
  17   10   11 ar
  18   10   37 1
  19   11   12 ar
  20   11   14 1
  21   12   13 ar
  22   12   15 1
  23   13   38 1
  24   14   16 1
  25   15   16 1
  26   15   18 1
  27   15   19 1
  28   16   39 1
  29   16   40 1
  30   17   18 1
  31   17   24 1
  32   18   41 1
  33   18   42 1
  34   19   20 ar
  35   19   24 ar
  36   20   21 ar
  37   20   43 1
  38   21   22 ar
  39   21   44 1
  40   22   23 ar
  41   22   45 1
  42   23   24 ar
  43   23   46 1
  44   26   27 1
  45   26   47 1
  46   26   48 1
  47   27   28 ar
  48   27   32 ar
  49   28   29 ar
  50   28   33 1
  51   29   30 ar
  52   29   49 1
  53   30   31 ar
  54   30   50 1
  55   31   32 ar
  56   31   51 1
  57   32   52 1
  58   33   53 1
  59   33   54 1
  60   33   55 1

#	End of record

