#	Name: ASD01148888
#	Creating user name:	WinNT
#	Creation time:	15. 06. 2019 19:03

#	Modifying user name:	WinNT
#	Modification time:	15. 06. 2019 19:03

#	Program:	/corina/corina34_cracker 3.40 0067  02.08.2006

@<TRIPOS>MOLECULE
ASD01148888
  38   41    0    0    0
SMALL
NO_CHARGES


@<TRIPOS>ATOM
   1 S1            -0.0125     0.1430    -0.6401 S.3     
   2 C2             0.3880    -1.5153    -0.6787 C.2     
   3 N3             1.6513    -1.6955    -0.5874 N.2     
   4 C4             2.4359    -0.6060    -0.4800 C.ar    
   5 C5             1.6878     0.5766    -0.4886 C.ar    
   6 C6             3.8375    -0.5168    -0.3665 C.ar    
   7 C7             4.4489     0.7139    -0.2667 C.ar    
   8 C8             3.6906     1.8825    -0.2762 C.ar    
   9 C9             2.3211     1.8134    -0.3864 C.ar    
  10 C10           -0.6202    -2.6283    -0.8042 C.3     
  11 N11            5.8450     0.7907    -0.1541 N.pl3   
  12 C12            6.6992     1.2969    -1.1026 C.2     
  13 C13            7.9691     1.1946    -0.6189 C.2     
  14 C14            7.8865     0.6114     0.6563 C.2     
  15 C15            6.5819     0.3801     0.9192 C.2     
  16 C16            6.0329    -0.2314     2.1824 C.3     
  17 C17            6.3103     1.8536    -2.4158 C.ar    
  18 C18            7.1769     2.7084    -3.0989 C.ar    
  19 C19            6.8086     3.2243    -4.3240 C.ar    
  20 C20            5.5820     2.8958    -4.8763 C.ar    
  21 C21            4.7179     2.0487    -4.2032 C.ar    
  22 C22            5.0775     1.5219    -2.9801 C.ar    
  23 Cl23           5.1256     3.5491    -6.4186 Cl      
  24 H24            4.4348    -1.4166    -0.3573 H       
  25 H25            4.1780     2.8430    -0.1968 H       
  26 H26            1.7352     2.7205    -0.3944 H       
  27 H27           -1.6229    -2.2051    -0.8649 H       
  28 H28           -0.4142    -3.2053    -1.7057 H       
  29 H29           -0.5529    -3.2794     0.0673 H       
  30 H30            8.8725     1.5042    -1.1233 H       
  31 H31            8.7169     0.3912     1.3109 H       
  32 H32            5.9853    -1.3146     2.0708 H       
  33 H33            6.6838     0.0193     3.0200 H       
  34 H34            5.0326     0.1588     2.3700 H       
  35 H35            8.1336     2.9656    -2.6689 H       
  36 H36            7.4781     3.8861    -4.8533 H       
  37 H37            3.7623     1.7966    -4.6386 H       
  38 H38            4.4048     0.8575    -2.4582 H       
@<TRIPOS>BOND
   1    1    2 1
   2    1    5 1
   3    2    3 2
   4    2   10 1
   5    3    4 1
   6    4    5 ar
   7    4    6 ar
   8    5    9 ar
   9    6    7 ar
  10    6   24 1
  11    7    8 ar
  12    7   11 1
  13    8    9 ar
  14    8   25 1
  15    9   26 1
  16   10   27 1
  17   10   28 1
  18   10   29 1
  19   11   12 1
  20   11   15 1
  21   12   13 2
  22   12   17 1
  23   13   14 1
  24   13   30 1
  25   14   15 2
  26   14   31 1
  27   15   16 1
  28   16   32 1
  29   16   33 1
  30   16   34 1
  31   17   18 ar
  32   17   22 ar
  33   18   19 ar
  34   18   35 1
  35   19   20 ar
  36   19   36 1
  37   20   21 ar
  38   20   23 1
  39   21   22 ar
  40   21   37 1
  41   22   38 1

#	End of record

