#	Name: ASD01230822
#	Creating user name:	WinNT
#	Creation time:	15. 06. 2019 19:15

#	Modifying user name:	WinNT
#	Modification time:	15. 06. 2019 19:15

#	Program:	/corina/corina34_cracker 3.40 0067  02.08.2006

@<TRIPOS>MOLECULE
ASD01230822
  51   53    0    0    0
SMALL
NO_CHARGES


@<TRIPOS>ATOM
   1 C1            -0.0173     1.3784     0.0350 C.2     
   2 C2            -0.9755     1.6517     0.9909 C.2     
   3 C3            -2.1613     0.9066     0.9951 C.2     
   4 C4            -2.3649    -0.0686     0.0918 C.2     
   5 N5            -1.4411    -0.3948    -0.8689 N.pl3   
   6 C6            -0.2763     0.3134    -0.9593 C.2     
   7 C7            -1.7865    -1.5165    -1.7464 C.3     
   8 C8            -1.2712    -1.2661    -3.1666 C.3     
   9 S9             0.5280    -1.0143    -3.0474 S.o2    
  10 N10            0.6547     0.1347    -1.8637 N.am    
  11 C11            1.2435     2.1409     0.0017 C.2     
  12 O12            1.1635    -2.1647    -2.5072 O.2     
  13 O13            1.0263    -0.3753    -4.2147 O.2     
  14 C14            1.2162     3.4661    -0.0912 C.2     
  15 C15            2.4897     4.2765     0.0117 C.3     
  16 C16            2.5796     5.1960    -1.2128 C.3     
  17 N17            1.3012     5.9018    -1.3688 N.am    
  18 C18            0.0655     5.1227    -1.5197 C.3     
  19 C19           -0.0883     4.2009    -0.3089 C.3     
  20 C20            1.2624     7.2490    -1.3728 C.2     
  21 O21            2.2890     7.8867    -1.2470 O.2     
  22 O22            0.0862     7.8882    -1.5163 O.3     
  23 C23            0.1198     9.3398    -1.5115 C.3     
  24 C24            0.9990     9.8333    -2.6623 C.3     
  25 C25           -1.2998     9.8834    -1.6848 C.3     
  26 C26            0.6958     9.8321    -0.1823 C.3     
  27 H27           -0.8130     2.4279     1.7241 H       
  28 H28           -2.9213     1.1175     1.7328 H       
  29 H29           -3.2940    -0.6183     0.1242 H       
  30 H30           -1.3369    -2.4297    -1.3565 H       
  31 H31           -2.8700    -1.6324    -1.7722 H       
  32 H32           -1.4845    -2.1295    -3.7968 H       
  33 H33           -1.7441    -0.3761    -3.5819 H       
  34 H34            2.1896     1.6225     0.0528 H       
  35 H35            2.4700     4.8772     0.9210 H       
  36 H36            3.3499     3.6073     0.0320 H       
  37 H37            3.3814     5.9200    -1.0680 H       
  38 H38            2.7790     4.6001    -2.1034 H       
  39 H39           -0.7878     5.7985    -1.5770 H       
  40 H40            0.1206     4.5226    -2.4280 H       
  41 H41           -0.8885     3.4840    -0.4927 H       
  42 H42           -0.3216     4.7932     0.5759 H       
  43 H43            0.5887     9.4826    -3.6093 H       
  44 H44            1.0243    10.9230    -2.6587 H       
  45 H45            2.0104     9.4460    -2.5388 H       
  46 H46           -1.9261     9.5318    -0.8649 H       
  47 H47           -1.2745    10.9731    -1.6812 H       
  48 H48           -1.7101     9.5327    -2.6317 H       
  49 H49            1.7072     9.4448    -0.0588 H       
  50 H50            0.7211    10.9218    -0.1787 H       
  51 H51            0.0695     9.4805     0.6376 H       
@<TRIPOS>BOND
   1    1    2 2
   2    1   11 1
   3    1    6 1
   4    2    3 1
   5    2   27 1
   6    3    4 2
   7    3   28 1
   8    4    5 1
   9    4   29 1
  10    5    6 1
  11    5    7 1
  12    6   10 2
  13    7    8 1
  14    7   30 1
  15    7   31 1
  16    8    9 1
  17    8   32 1
  18    8   33 1
  19    9   10 am
  20    9   12 2
  21    9   13 2
  22   11   14 2
  23   11   34 1
  24   14   15 1
  25   14   19 1
  26   15   16 1
  27   15   35 1
  28   15   36 1
  29   16   17 1
  30   16   37 1
  31   16   38 1
  32   17   18 1
  33   17   20 am
  34   18   19 1
  35   18   39 1
  36   18   40 1
  37   19   41 1
  38   19   42 1
  39   20   21 2
  40   20   22 1
  41   22   23 1
  42   23   24 1
  43   23   25 1
  44   23   26 1
  45   24   43 1
  46   24   44 1
  47   24   45 1
  48   25   46 1
  49   25   47 1
  50   25   48 1
  51   26   49 1
  52   26   50 1
  53   26   51 1

#	End of record

