#	Name: ASD04590306
#	Creating user name:	WinNT
#	Creation time:	15. 06. 2019 20:50

#	Modifying user name:	WinNT
#	Modification time:	15. 06. 2019 20:50

#	Program:	/corina/corina34_cracker 3.40 0067  02.08.2006

@<TRIPOS>MOLECULE
ASD04590306
  40   44    0    0    0
SMALL
NO_CHARGES


@<TRIPOS>ATOM
   1 C1            -0.0167     1.3834     0.0096 C.ar    
   2 C2             0.0021    -0.0041     0.0020 C.ar    
   3 C3             1.1863    -0.6848    -0.0125 C.ar    
   4 C4             2.3948     0.0191    -0.0203 C.ar    
   5 C5             2.3756     1.4250    -0.0131 C.ar    
   6 C6             1.1624     2.0987     0.0022 C.ar    
   7 N7             3.6952    -0.3636    -0.0345 N.2     
   8 C8             4.4665     0.6967    -0.0364 C.2     
   9 N9             3.6970     1.8290    -0.0235 N.pl3   
  10 C10            5.9437     0.6731    -0.0496 C.2     
  11 C11            6.7566    -0.4840    -0.0628 C.2     
  12 C12            8.0505    -0.0800    -0.0722 C.2     
  13 N13            8.0626     1.2789    -0.0653 N.pl3   
  14 N14            6.7358     1.7273    -0.0570 N.2     
  15 N15            6.3044    -1.8133    -0.0655 N.am    
  16 C16            7.1924    -2.8272    -0.0786 C.2     
  17 C17            6.7178    -4.2222    -0.0815 C.ar    
  18 O18            8.3855    -2.5906    -0.0880 O.2     
  19 C19            7.1748    -6.6154    -0.1041 C.ar    
  20 C20            5.8070    -6.8617    -0.0874 C.ar    
  21 C21            4.9109    -5.8116    -0.0736 C.ar    
  22 C22            5.3529    -4.5014    -0.0708 C.ar    
  23 C23            7.6400    -5.2880    -0.1011 C.ar    
  24 C24            9.0976    -5.3688    -0.1208 C.2     
  25 C25            9.4191    -6.6752    -0.1341 C.2     
  26 N26            8.2835    -7.4335    -0.1244 N.pl3   
  27 H27           -0.9614     1.9069     0.0170 H       
  28 H28           -0.9290    -0.5513     0.0080 H       
  29 H29            1.1893    -1.7648    -0.0177 H       
  30 H30            1.1417     3.1785     0.0075 H       
  31 H31            4.0192     2.7439    -0.0216 H       
  32 H32            8.9176    -0.7237    -0.0832 H       
  33 H33            8.8532     1.8410    -0.0695 H       
  34 H34            5.3530    -2.0020    -0.0581 H       
  35 H35            5.4437    -7.8788    -0.0897 H       
  36 H36            3.8506    -6.0162    -0.0611 H       
  37 H37            4.6379    -3.6921    -0.0600 H       
  38 H38            9.7870    -4.5376    -0.1245 H       
  39 H39           10.4258    -7.0661    -0.1504 H       
  40 H40            8.2606    -8.4032    -0.1304 H       
@<TRIPOS>BOND
   1    1    2 ar
   2    1    6 ar
   3    1   27 1
   4    2    3 ar
   5    2   28 1
   6    3    4 ar
   7    3   29 1
   8    4    5 ar
   9    4    7 1
  10    5    6 ar
  11    5    9 1
  12    6   30 1
  13    7    8 2
  14    8    9 1
  15    8   10 1
  16    9   31 1
  17   10   11 1
  18   10   14 2
  19   11   12 2
  20   11   15 1
  21   12   13 1
  22   12   32 1
  23   13   14 1
  24   13   33 1
  25   15   16 am
  26   15   34 1
  27   16   17 1
  28   16   18 2
  29   17   22 ar
  30   17   23 ar
  31   19   20 ar
  32   19   23 ar
  33   19   26 1
  34   20   21 ar
  35   20   35 1
  36   21   22 ar
  37   21   36 1
  38   22   37 1
  39   23   24 1
  40   24   25 2
  41   24   38 1
  42   25   26 1
  43   25   39 1
  44   26   40 1

#	End of record

