#	Name: ASD03090078
#	Creating user name:	WinNT
#	Creation time:	15. 06. 2019 20:28

#	Modifying user name:	WinNT
#	Modification time:	15. 06. 2019 20:28

#	Program:	/corina/corina34_cracker 3.40 0067  02.08.2006

@<TRIPOS>MOLECULE
ASD03090078
  53   55    0    0    0
SMALL
NO_CHARGES


@<TRIPOS>ATOM
   1 C1            -0.0180     1.4711    -0.0247 C.2     
   2 C2             0.0020    -0.0031    -0.0625 C.ar    
   3 C3             1.2216    -0.6868    -0.0833 C.ar    
   4 C4             1.2371    -2.0572    -0.1180 C.ar    
   5 C5             0.0394    -2.7685    -0.1325 C.ar    
   6 C6            -1.1770    -2.0900    -0.1118 C.ar    
   7 C7            -1.1986    -0.7199    -0.0718 C.ar    
   8 O8             1.0268     2.0932    -0.0116 O.2     
   9 N9            -1.1942     2.1290    -0.0103 N.am    
  10 S10            0.0633    -4.5298    -0.1777 S.3     
  11 C11           -1.6985    -4.9617    -0.1833 C.3     
  12 F12           -2.3120    -4.4032    -1.3097 F       
  13 F13           -1.8374    -6.3533    -0.2185 F       
  14 F14           -2.3049    -4.4617     0.9741 F       
  15 C15           -1.2140     3.5934     0.0273 C.3     
  16 C16           -2.6415     4.0763     0.0367 C.ar    
  17 C17           -3.2975     4.2666     1.2391 C.ar    
  18 C18           -4.6056     4.7091     1.2513 C.ar    
  19 C19           -5.2625     4.9631     0.0540 C.ar    
  20 C20           -4.6006     4.7709    -1.1521 C.ar    
  21 C21           -3.2906     4.3336    -1.1569 C.ar    
  22 N22           -6.5857     5.4103     0.0627 N.3     
  23 C23           -7.0914     5.4557     1.3675 C.3     
  24 C24           -8.6044     5.7523     1.3929 C.3     
  25 N25           -8.8061     7.1694     1.1900 N.3     
  26 C26           -9.0500     7.5435    -0.2217 C.3     
  27 C27           -8.1336     6.7870    -1.1966 C.3     
  28 C28           -6.7204     6.6817    -0.6810 C.3     
  29 C29           -9.8730     7.6794     2.0616 C.3     
  30 H30            2.1504    -0.1359    -0.0725 H       
  31 H31            2.1787    -2.5858    -0.1345 H       
  32 H32           -2.1040    -2.6441    -0.1235 H       
  33 H33           -2.1420    -0.1945    -0.0516 H       
  34 H34           -2.0276     1.6329    -0.0248 H       
  35 H35           -0.7070     3.9406     0.9276 H       
  36 H36           -0.7033     3.9863    -0.8518 H       
  37 H37           -2.7863     4.0687     2.1697 H       
  38 H38           -5.1175     4.8572     2.1907 H       
  39 H39           -5.1084     4.9674    -2.0848 H       
  40 H40           -2.7738     4.1885    -2.0941 H       
  41 H41           -6.9106     4.4957     1.8510 H       
  42 H42           -6.5686     6.2342     1.9231 H       
  43 H43           -9.0991     5.1954     0.5971 H       
  44 H44           -9.0179     5.4590     2.3579 H       
  45 H45          -10.0881     7.3235    -0.4706 H       
  46 H46           -8.8808     8.6141    -0.3372 H       
  47 H47           -8.5306     5.7834    -1.3491 H       
  48 H48           -8.1237     7.3112    -2.1522 H       
  49 H49           -6.5099     7.5192    -0.0158 H       
  50 H50           -6.0232     6.6916    -1.5188 H       
  51 H51           -9.6356     7.4481     3.0999 H       
  52 H52           -9.9564     8.7594     1.9399 H       
  53 H53          -10.8186     7.2093     1.7916 H       
@<TRIPOS>BOND
   1    1    2 1
   2    1    8 2
   3    1    9 am
   4    2    3 ar
   5    2    7 ar
   6    3    4 ar
   7    3   30 1
   8    4    5 ar
   9    4   31 1
  10    5    6 ar
  11    5   10 1
  12    6    7 ar
  13    6   32 1
  14    7   33 1
  15    9   15 1
  16    9   34 1
  17   10   11 1
  18   11   12 1
  19   11   13 1
  20   11   14 1
  21   15   16 1
  22   15   35 1
  23   15   36 1
  24   16   17 ar
  25   16   21 ar
  26   17   18 ar
  27   17   37 1
  28   18   19 ar
  29   18   38 1
  30   19   20 ar
  31   19   22 1
  32   20   21 ar
  33   20   39 1
  34   21   40 1
  35   22   23 1
  36   22   28 1
  37   23   24 1
  38   23   41 1
  39   23   42 1
  40   24   25 1
  41   24   43 1
  42   24   44 1
  43   25   26 1
  44   25   29 1
  45   26   27 1
  46   26   45 1
  47   26   46 1
  48   27   28 1
  49   27   47 1
  50   27   48 1
  51   28   49 1
  52   28   50 1
  53   29   51 1
  54   29   52 1
  55   29   53 1

#	End of record

