#	Name: ASD01209284
#	Creating user name:	WinNT
#	Creation time:	15. 06. 2019 19:11

#	Modifying user name:	WinNT
#	Modification time:	15. 06. 2019 19:11

#	Program:	/corina/corina34_cracker 3.40 0067  02.08.2006

@<TRIPOS>MOLECULE
ASD01209284
  67   69    0    0    0
SMALL
NO_CHARGES


@<TRIPOS>ATOM
   1 C1            -0.0849     1.4449     0.3573 C.3     
   2 C2            -0.4130     0.0638     0.8632 C.ar    
   3 C3            -1.1535    -0.8015     0.0797 C.ar    
   4 C4            -1.4546    -2.0683     0.5439 C.ar    
   5 C5            -1.0148    -2.4700     1.7913 C.ar    
   6 C6            -0.2735    -1.6050     2.5744 C.ar    
   7 C7             0.0312    -0.3397     2.1085 C.ar    
   8 S8            -1.3995    -4.0843     2.3834 S.o2    
   9 O9            -1.3752    -3.9537     3.7981 O.2     
  10 O10           -2.5959    -4.4322     1.7002 O.2     
  11 C11           -0.0194    -5.1155     1.8155 C.3     
  12 C12            1.4112     1.6120     0.2875 C.2     
  13 O13            2.1391     0.7471     0.7267 O.2     
  14 N14            1.9403     2.7226    -0.2631 N.am    
  15 C15            3.3237     2.8911    -0.3001 C.ar    
  16 P16            6.6546     0.5550    -0.0435 P.3     
  17 O17            6.5135    -0.0333     1.3071 O.2     
  18 O18            8.1712     1.0515    -0.2569 O.3     
  19 O19            6.2919    -0.5542    -1.1527 O.3     
  20 C20            6.9323    -1.8301    -1.2157 C.3     
  21 C21            6.3537    -2.6341    -2.3818 C.3     
  22 C22           -0.6708     2.4894     1.3094 C.3     
  23 C23           -2.1954     2.3626     1.3298 C.3     
  24 C24           -2.7871     3.2906     2.4052 C.3     
  25 C25           -3.7128     4.2823     1.6707 C.3     
  26 C26           -4.0968     3.5463     0.3631 C.3     
  27 C27           -2.7821     2.8228    -0.0206 C.3     
  28 C28            9.3019     0.1946    -0.0862 C.3     
  29 C29           10.5844     0.9810    -0.3651 C.3     
  30 C30            4.1557     1.7852    -0.1704 C.ar    
  31 C31            5.5273     1.9666    -0.2090 C.ar    
  32 C32            6.0207     3.2530    -0.3766 C.ar    
  33 C33            5.1354     4.3061    -0.4990 C.ar    
  34 N34            3.8327     4.1020    -0.4639 N.ar    
  35 H35           -0.5122     1.5788    -0.6365 H       
  36 H36           -1.4971    -0.4876    -0.8949 H       
  37 H37           -2.0337    -2.7441    -0.0680 H       
  38 H38            0.0698    -1.9187     3.5492 H       
  39 H39            0.6103     0.3360     2.7203 H       
  40 H40            0.9128    -4.7391     2.2367 H       
  41 H41           -0.1761    -6.1438     2.1413 H       
  42 H42            0.0345    -5.0833     0.7273 H       
  43 H43            1.3586     3.4047    -0.6335 H       
  44 H44            8.0031    -1.6922    -1.3654 H       
  45 H45            6.7622    -2.3685    -0.2834 H       
  46 H46            5.2829    -2.7720    -2.2321 H       
  47 H47            6.5238    -2.0957    -3.3142 H       
  48 H48            6.8421    -3.6074    -2.4299 H       
  49 H49           -0.2792     2.3261     2.3134 H       
  50 H50           -0.3937     3.4872     0.9692 H       
  51 H51           -2.4812     1.3299     1.5294 H       
  52 H52           -3.3609     2.7082     3.1262 H       
  53 H53           -1.9882     3.8312     2.9126 H       
  54 H54           -4.6013     4.4884     2.2675 H       
  55 H55           -3.1802     5.2064     1.4461 H       
  56 H56           -4.8948     2.8265     0.5451 H       
  57 H57           -4.3860     4.2580    -0.4101 H       
  58 H58           -2.0992     3.5112    -0.5185 H       
  59 H59           -2.9914     1.9639    -0.6582 H       
  60 H60            9.3216    -0.1816     0.9366 H       
  61 H61            9.2311    -0.6430    -0.7801 H       
  62 H62           10.5648     1.3572    -1.3879 H       
  63 H63           10.6552     1.8186     0.3288 H       
  64 H64           11.4469     0.3273    -0.2349 H       
  65 H65            3.7376     0.7979    -0.0409 H       
  66 H66            7.0857     3.4288    -0.4106 H       
  67 H67            5.5146     5.3088    -0.6297 H       
@<TRIPOS>BOND
   1    1    2 1
   2    1   12 1
   3    1   22 1
   4    1   35 1
   5    2    3 ar
   6    2    7 ar
   7    3    4 ar
   8    3   36 1
   9    4    5 ar
  10    4   37 1
  11    5    6 ar
  12    5    8 1
  13    6    7 ar
  14    6   38 1
  15    7   39 1
  16    8    9 2
  17    8   10 2
  18    8   11 1
  19   11   40 1
  20   11   41 1
  21   11   42 1
  22   12   13 2
  23   12   14 am
  24   14   15 1
  25   14   43 1
  26   15   30 ar
  27   15   34 ar
  28   16   17 2
  29   16   18 1
  30   16   19 1
  31   16   31 1
  32   18   28 1
  33   19   20 1
  34   20   21 1
  35   20   44 1
  36   20   45 1
  37   21   46 1
  38   21   47 1
  39   21   48 1
  40   22   23 1
  41   22   49 1
  42   22   50 1
  43   23   24 1
  44   23   27 1
  45   23   51 1
  46   24   25 1
  47   24   52 1
  48   24   53 1
  49   25   26 1
  50   25   54 1
  51   25   55 1
  52   26   27 1
  53   26   56 1
  54   26   57 1
  55   27   58 1
  56   27   59 1
  57   28   29 1
  58   28   60 1
  59   28   61 1
  60   29   62 1
  61   29   63 1
  62   29   64 1
  63   30   31 ar
  64   30   65 1
  65   31   32 ar
  66   32   33 ar
  67   32   66 1
  68   33   34 ar
  69   33   67 1

#	End of record

