#	Name: ASD02038607
#	Creating user name:	WinNT
#	Creation time:	15. 06. 2019 20:17

#	Modifying user name:	WinNT
#	Modification time:	15. 06. 2019 20:17

#	Program:	/corina/corina34_cracker 3.40 0067  02.08.2006

@<TRIPOS>MOLECULE
ASD02038607
  39   40    0    0    0
SMALL
NO_CHARGES


@<TRIPOS>ATOM
   1 C1            -0.0167     1.3796     0.0096 C.ar    
   2 C2             0.0021    -0.0041     0.0020 C.ar    
   3 C3            -1.1837    -0.7121     0.0091 C.ar    
   4 C4            -2.3958    -0.0340     0.0243 C.ar    
   5 C5            -2.4117     1.3548     0.0324 C.ar    
   6 C6            -1.2228     2.0577     0.0305 C.ar    
   7 N7            -3.5972    -0.7478     0.0310 N.pl3   
   8 C8            -4.8749    -0.0313     0.0471 C.3     
   9 C9            -6.0253    -1.0400     0.0515 C.3     
  10 N10           -7.3030    -0.3235     0.0676 N.am    
  11 C11           -8.4616    -1.0119     0.0740 C.2     
  12 C12           -9.7760    -0.2748     0.0905 C.3     
  13 O13          -10.8504    -1.2170     0.0947 O.3     
  14 C14          -12.1133    -0.7130     0.1093 C.ar    
  15 Cl15           1.4757     2.2664     0.0001 Cl      
  16 C16          -13.2026    -1.5716     0.1142 C.ar    
  17 C17          -12.3121     0.6595     0.1252 C.ar    
  18 C18          -13.5950     1.1715     0.1400 C.ar    
  19 C19          -14.6843     0.3129     0.1387 C.ar    
  20 C20          -14.4854    -1.0597     0.1290 C.ar    
  21 O21          -15.9472     0.8169     0.1537 O.3     
  22 O22           -8.4465    -2.2246     0.0666 O.2     
  23 H23            0.9449    -0.5308    -0.0098 H       
  24 H24           -1.1685    -1.7920     0.0024 H       
  25 H25           -3.3527     1.8846     0.0439 H       
  26 H26           -1.2345     3.1376     0.0372 H       
  27 H27           -3.5851    -1.7177     0.0250 H       
  28 H28           -4.9323     0.5892     0.9414 H       
  29 H29           -4.9486     0.5999    -0.8385 H       
  30 H30           -5.9679    -1.6605    -0.8428 H       
  31 H31           -5.9515    -1.6713     0.9371 H       
  32 H32           -7.3151     0.6464     0.0735 H       
  33 H33           -9.8333     0.3457     0.9849 H       
  34 H34           -9.8497     0.3564    -0.7950 H       
  35 H35          -13.0477    -2.6404     0.1060 H       
  36 H36          -11.4639     1.3281     0.1263 H       
  37 H37          -13.7498     2.2402     0.1531 H       
  38 H38          -15.3337    -1.7282     0.1275 H       
  39 H39          -16.3191     0.9725    -0.7253 H       
@<TRIPOS>BOND
   1    1    2 ar
   2    1   15 1
   3    1    6 ar
   4    2    3 ar
   5    2   23 1
   6    3    4 ar
   7    3   24 1
   8    4    5 ar
   9    4    7 1
  10    5    6 ar
  11    5   25 1
  12    6   26 1
  13    7    8 1
  14    7   27 1
  15    8    9 1
  16    8   28 1
  17    8   29 1
  18    9   10 1
  19    9   30 1
  20    9   31 1
  21   10   11 am
  22   10   32 1
  23   11   12 1
  24   11   22 2
  25   12   13 1
  26   12   33 1
  27   12   34 1
  28   13   14 1
  29   14   16 ar
  30   14   17 ar
  31   16   20 ar
  32   16   35 1
  33   17   18 ar
  34   17   36 1
  35   18   19 ar
  36   18   37 1
  37   19   20 ar
  38   19   21 1
  39   20   38 1
  40   21   39 1

#	End of record

