#	Name: ASD01912270
#	Creating user name:	WinNT
#	Creation time:	15. 06. 2019 19:59

#	Modifying user name:	WinNT
#	Modification time:	15. 06. 2019 19:59

#	Program:	/corina/corina34_cracker 3.40 0067  02.08.2006

@<TRIPOS>MOLECULE
ASD01912270
  45   47    0    0    0
SMALL
NO_CHARGES


@<TRIPOS>ATOM
   1 N1            -0.0002     1.4797    -0.1144 N.am    
   2 C2             0.0333     0.0179    -0.2511 C.3     
   3 C3             0.8642    -0.3433    -1.4889 C.3     
   4 C4             2.1724     0.4141    -1.4244 C.2     
   5 C5             2.1264     1.9140    -1.2320 C.3     
   6 C6             1.2638     2.2186    -0.0006 C.3     
   7 C7            -1.1772     2.1361    -0.0991 C.2     
   8 O8            -2.2188     1.5182    -0.1988 O.2     
   9 O9            -1.1990     3.4766     0.0267 O.3     
  10 C10            3.3366    -0.2244    -1.5339 C.2     
  11 C11            4.5645     0.5096    -1.4703 C.1     
  12 C12            5.5712     1.1113    -1.4183 C.1     
  13 C13            6.7991     1.8454    -1.3547 C.ar    
  14 C14            8.0179     1.1705    -1.4702 C.ar    
  15 C15            9.1944     1.8943    -1.4067 C.ar    
  16 C16            9.1188     3.2696    -1.2299 C.ar    
  17 C17            7.8796     3.8742    -1.1230 C.ar    
  18 N18            6.7719     3.1650    -1.1918 N.ar    
  19 C19            7.7954     5.3666    -0.9311 C.3     
  20 C20           -2.4110     4.0863    -0.0699 C.ar    
  21 C21           -3.2186     4.2091     1.0533 C.ar    
  22 C22           -4.4521     4.8302     0.9523 C.ar    
  23 C23           -4.8788     5.3283    -0.2695 C.ar    
  24 C24           -4.0730     5.2052    -1.3877 C.ar    
  25 C25           -2.8387     4.5907    -1.2882 C.ar    
  26 F26           -6.0824     5.9339    -0.3683 F       
  27 F27           -5.2397     4.9504     2.0434 F       
  28 F28           -2.8015     3.7229     2.2427 F       
  29 H29            0.4892    -0.4217     0.6360 H       
  30 H30           -0.9817    -0.3614    -0.3690 H       
  31 H31            1.0609    -1.4153    -1.4988 H       
  32 H32            0.3209    -0.0611    -2.3907 H       
  33 H33            3.1357     2.2952    -1.0764 H       
  34 H34            1.6879     2.3837    -2.1125 H       
  35 H35            1.0589     3.2882     0.0465 H       
  36 H36            1.7904     1.9054     0.9009 H       
  37 H37            3.3542    -1.2956    -1.6705 H       
  38 H38            8.0403     0.0994    -1.6066 H       
  39 H39           10.1512     1.4007    -1.4924 H       
  40 H40           10.0202     3.8621    -1.1761 H       
  41 H41            7.7503     5.8560    -1.9040 H       
  42 H42            6.8991     5.6095    -0.3603 H       
  43 H43            8.6758     5.7137    -0.3902 H       
  44 H44           -4.4070     5.5934    -2.3386 H       
  45 H45           -2.2093     4.4995    -2.1611 H       
@<TRIPOS>BOND
   1    1    2 1
   2    1    6 1
   3    1    7 am
   4    2    3 1
   5    2   29 1
   6    2   30 1
   7    3    4 1
   8    3   31 1
   9    3   32 1
  10    4    5 1
  11    4   10 2
  12    5    6 1
  13    5   33 1
  14    5   34 1
  15    6   35 1
  16    6   36 1
  17    7    8 2
  18    7    9 1
  19    9   20 1
  20   10   11 1
  21   10   37 1
  22   11   12 3
  23   12   13 1
  24   13   14 ar
  25   13   18 ar
  26   14   15 ar
  27   14   38 1
  28   15   16 ar
  29   15   39 1
  30   16   17 ar
  31   16   40 1
  32   17   18 ar
  33   17   19 1
  34   19   41 1
  35   19   42 1
  36   19   43 1
  37   20   21 ar
  38   20   25 ar
  39   21   22 ar
  40   21   28 1
  41   22   23 ar
  42   22   27 1
  43   23   24 ar
  44   23   26 1
  45   24   25 ar
  46   24   44 1
  47   25   45 1

#	End of record

