#	Name: ASD04910151
#	Creating user name:	WinNT
#	Creation time:	15. 06. 2019 20:55

#	Modifying user name:	WinNT
#	Modification time:	15. 06. 2019 20:55

#	Program:	/corina/corina34_cracker 3.40 0067  02.08.2006

@<TRIPOS>MOLECULE
ASD04910151
  20   21    0    0    0
SMALL
NO_CHARGES


@<TRIPOS>ATOM
   1 C1            -0.0168     1.3852     0.0097 C.ar    
   2 C2             0.0021    -0.0041     0.0020 C.ar    
   3 C3             1.2203    -0.6608    -0.0132 C.ar    
   4 C4             2.3819     0.0990    -0.0202 C.ar    
   5 C5             2.2882     1.4768    -0.0119 C.ar    
   6 N6             1.1124     2.0746     0.0026 N.ar    
   7 N7             3.7070    -0.5605    -0.0360 N.pl3   
   8 O8             3.7822    -1.7762    -0.0428 O.2     
   9 O9             4.7222     0.1125    -0.0421 O.2     
  10 C10           -2.4739     1.4985     0.1176 C.2     
  11 N11           -3.3679     2.4488     0.0914 N.2     
  12 C12           -2.7529     3.6360    -0.0229 C.2     
  13 C13           -1.4243     3.4188    -0.0698 C.2     
  14 N14           -1.2407     2.0611     0.0191 N.pl3   
  15 Cl15          -3.5345     5.1842    -0.0978 Cl      
  16 H16           -0.9214    -0.5640     0.0082 H       
  17 H17            1.2661    -1.7398    -0.0191 H       
  18 H18            3.1890     2.0725    -0.0170 H       
  19 H19           -2.6794     0.4420     0.2072 H       
  20 H20           -0.6521     4.1684    -0.1603 H       
@<TRIPOS>BOND
   1    1    2 ar
   2    1    6 ar
   3    1   14 1
   4    2    3 ar
   5    2   16 1
   6    3    4 ar
   7    3   17 1
   8    4    5 ar
   9    4    7 1
  10    5    6 ar
  11    5   18 1
  12    7    8 2
  13    7    9 2
  14   10   11 2
  15   10   14 1
  16   10   19 1
  17   11   12 1
  18   12   13 2
  19   12   15 1
  20   13   14 1
  21   13   20 1

#	End of record

