#	Name: ASD08070323
#	Creating user name:	WinNT
#	Creation time:	15. 06. 2019 21:14

#	Modifying user name:	WinNT
#	Modification time:	15. 06. 2019 21:14

#	Program:	/corina/corina34_cracker 3.40 0067  02.08.2006

@<TRIPOS>MOLECULE
ASD08070323
  79   82    0    0    0
SMALL
NO_CHARGES


@<TRIPOS>ATOM
   1 C1            -0.5402     0.7724    -0.3303 C.ar    
   2 C2            -0.6268    -0.5900    -0.5676 C.ar    
   3 C3             0.5202    -1.3614    -0.5932 C.ar    
   4 C4             1.7551    -0.7766    -0.3824 C.ar    
   5 C5             1.8484     0.5821    -0.1452 C.ar    
   6 C6             0.7027     1.3610    -0.1182 C.ar    
   7 O7            -1.6670     1.5336    -0.3104 O.3     
   8 C8            -2.9073     0.8627    -0.5420 C.3     
   9 O9             0.7928     2.6979     0.1146 O.3     
  10 C10            3.0021    -1.6222    -0.4109 C.3     
  11 C11            3.5532    -1.6703    -1.8374 C.3     
  12 C12            4.8002    -2.5160    -1.8659 C.2     
  13 C13            5.5181    -2.7172    -3.1228 C.ar    
  14 O14            5.2084    -3.0300    -0.8449 O.2     
  15 C15            5.0520    -2.1185    -4.3084 C.ar    
  16 C16            6.6834    -3.5062    -3.1545 C.ar    
  17 C17            7.3551    -3.6905    -4.3481 C.ar    
  18 C18            6.8841    -3.0996    -5.5140 C.ar    
  19 C19            5.7379    -2.3147    -5.4920 C.ar    
  20 O20            7.1455    -4.0832    -2.0176 O.3     
  21 O21            3.9334    -1.3520    -4.2893 O.3     
  22 O22            7.5508    -3.2860    -6.6809 O.3     
  23 C23            6.9525    -2.7500    -7.8627 C.3     
  24 C24            5.0853    -3.0282    -9.3418 C.3     
  25 O25            5.7790    -3.4993    -8.1847 O.3     
  26 C26            7.9469    -2.8381    -9.0234 C.3     
  27 C27            7.2780    -2.3175   -10.2992 C.3     
  28 C28            6.0047    -3.1275   -10.5619 C.3     
  29 C29            3.8377    -3.8835    -9.5721 C.3     
  30 O30            2.9278    -3.7009    -8.4855 O.3     
  31 O31            9.0968    -2.0426    -8.7284 O.3     
  32 C32           10.3178    -2.5695    -9.2516 C.3     
  33 O33           10.6977    -3.7256    -8.5023 O.3     
  34 C34           10.8837    -3.4812    -7.1067 C.3     
  35 C35           12.0066    -2.4585    -6.9144 C.3     
  36 C36           11.6515    -1.1739    -7.6694 C.3     
  37 C37           11.4179    -1.5102    -9.1454 C.3     
  38 C38           11.2585    -4.7883    -6.4053 C.3     
  39 O39           12.7271    -0.2400    -7.5562 O.3     
  40 O40           12.6258    -2.0172    -9.7166 O.3     
  41 O41            8.1739    -2.4642   -11.4028 O.3     
  42 O42           12.1557    -2.1690    -5.5230 O.3     
  43 O43            5.3335    -2.6034   -11.7095 O.3     
  44 H44           -1.5902    -1.0494    -0.7322 H       
  45 H45            0.4513    -2.4232    -0.7778 H       
  46 H46            2.8143     1.0365     0.0195 H       
  47 H47           -2.8883     0.3933    -1.5255 H       
  48 H48           -3.0558     0.0996     0.2220 H       
  49 H49           -3.7238     1.5835    -0.4991 H       
  50 H50            0.7399     2.9387     1.0496 H       
  51 H51            3.7501    -1.1890     0.2531 H       
  52 H52            2.7635    -2.6328    -0.0793 H       
  53 H53            2.8052    -2.1035    -2.5014 H       
  54 H54            3.7918    -0.6598    -2.1690 H       
  55 H55            8.2494    -4.2955    -4.3745 H       
  56 H56            5.3819    -1.8562    -6.4027 H       
  57 H57            6.7898    -4.9671    -1.8525 H       
  58 H58            4.1013    -0.4154    -4.1166 H       
  59 H59            6.6832    -1.7075    -7.6931 H       
  60 H60            4.7914    -1.9894    -9.1917 H       
  61 H61            8.2479    -3.8758    -9.1672 H       
  62 H62            7.0215    -1.2656   -10.1734 H       
  63 H63            6.2664    -4.1711   -10.7368 H       
  64 H64            3.3573    -3.5820   -10.5029 H       
  65 H65            4.1234    -4.9335    -9.6342 H       
  66 H66            2.1122    -4.2143    -8.5649 H       
  67 H67           10.1769    -2.8440   -10.2970 H       
  68 H68            9.9598    -3.0913    -6.6796 H       
  69 H69           12.9398    -2.8644    -7.3050 H       
  70 H70           10.7450    -0.7410    -7.2462 H       
  71 H71           11.1107    -0.6112    -9.6796 H       
  72 H72           12.2288    -5.1292    -6.7665 H       
  73 H73           11.3093    -4.6217    -5.3294 H       
  74 H74           10.5043    -5.5453    -6.6205 H       
  75 H75           12.5698     0.5982    -8.0119 H       
  76 H76           12.5506    -2.2514   -10.6518 H       
  77 H77            7.8145    -2.1538   -12.2451 H       
  78 H78           12.3767    -2.9397    -4.9824 H       
  79 H79            4.5143    -3.0666   -11.9317 H       
@<TRIPOS>BOND
   1    1    2 ar
   2    1    6 ar
   3    1    7 1
   4    2    3 ar
   5    2   44 1
   6    3    4 ar
   7    3   45 1
   8    4    5 ar
   9    4   10 1
  10    5    6 ar
  11    5   46 1
  12    6    9 1
  13    7    8 1
  14    8   47 1
  15    8   48 1
  16    8   49 1
  17    9   50 1
  18   10   11 1
  19   10   51 1
  20   10   52 1
  21   11   12 1
  22   11   53 1
  23   11   54 1
  24   12   13 1
  25   12   14 2
  26   13   16 ar
  27   13   15 ar
  28   15   19 ar
  29   15   21 1
  30   16   17 ar
  31   16   20 1
  32   17   18 ar
  33   17   55 1
  34   18   19 ar
  35   18   22 1
  36   19   56 1
  37   20   57 1
  38   21   58 1
  39   22   23 1
  40   23   26 1
  41   23   25 1
  42   23   59 1
  43   24   25 1
  44   24   28 1
  45   24   29 1
  46   24   60 1
  47   26   27 1
  48   26   31 1
  49   26   61 1
  50   27   28 1
  51   27   41 1
  52   27   62 1
  53   28   43 1
  54   28   63 1
  55   29   30 1
  56   29   64 1
  57   29   65 1
  58   30   66 1
  59   31   32 1
  60   32   33 1
  61   32   37 1
  62   32   67 1
  63   33   34 1
  64   34   35 1
  65   34   38 1
  66   34   68 1
  67   35   36 1
  68   35   42 1
  69   35   69 1
  70   36   37 1
  71   36   39 1
  72   36   70 1
  73   37   40 1
  74   37   71 1
  75   38   72 1
  76   38   73 1
  77   38   74 1
  78   39   75 1
  79   40   76 1
  80   41   77 1
  81   42   78 1
  82   43   79 1

#	End of record

