#	Name: ASD01230845
#	Creating user name:	WinNT
#	Creation time:	15. 06. 2019 19:15

#	Modifying user name:	WinNT
#	Modification time:	15. 06. 2019 19:15

#	Program:	/corina/corina34_cracker 3.40 0067  02.08.2006

@<TRIPOS>MOLECULE
ASD01230845
  45   48    0    0    0
SMALL
NO_CHARGES


@<TRIPOS>ATOM
   1 C1             0.0244     1.5934    -0.8735 C.3     
   2 C2            -0.1153     0.1870    -0.2845 C.3     
   3 C3            -1.5088    -0.3758    -0.5257 C.3     
   4 C4            -2.5700     0.7101    -0.6368 C.3     
   5 N5            -2.1903     1.9054     0.1199 N.pl3   
   6 C6            -0.9769     2.4810    -0.1542 C.2     
   7 C7            -3.0686     2.4393     1.1578 C.3     
   8 C8            -3.3027     3.9304     0.9101 C.3     
   9 S9            -1.7053     4.7792     0.8018 S.o2    
  10 N10           -0.6754     3.6889     0.1213 N.am    
  11 C11            1.4225     2.1083    -0.6475 C.ar    
  12 O12           -1.7684     5.8356    -0.1465 O.2     
  13 O13           -1.1709     4.9978     2.1002 O.2     
  14 C14            2.2166     2.4462    -1.7278 C.ar    
  15 C15            3.4983     2.9189    -1.5234 C.ar    
  16 C16            3.9888     3.0546    -0.2325 C.ar    
  17 C17            3.1899     2.7148     0.8499 C.ar    
  18 C18            1.9069     2.2475     0.6401 C.ar    
  19 O19            5.2495     3.5189    -0.0287 O.3     
  20 C20            5.4247     4.8621     0.0810 C.ar    
  21 C21            4.3250     5.7073     0.0937 C.ar    
  22 C22            4.5062     7.0744     0.2054 C.ar    
  23 C23            5.7845     7.5983     0.3040 C.ar    
  24 C24            6.8813     6.7572     0.2914 C.ar    
  25 C25            6.7046     5.3900     0.1862 C.ar    
  26 F26            3.4358     7.8986     0.2179 F       
  27 Cl27           8.0831     4.3349     0.1705 Cl      
  28 H28           -0.1955     1.5725    -1.9409 H       
  29 H29            0.6204    -0.4695    -0.7491 H       
  30 H30            0.0722     0.2289     0.7885 H       
  31 H31           -1.4996    -0.9546    -1.4493 H       
  32 H32           -1.7685    -1.0385     0.2998 H       
  33 H33           -2.6983     0.9776    -1.6856 H       
  34 H34           -3.5141     0.3274    -0.2492 H       
  35 H35           -4.0227     1.9127     1.1328 H       
  36 H36           -2.6032     2.3018     2.1338 H       
  37 H37           -3.8489     4.0626    -0.0239 H       
  38 H38           -3.8820     4.3492     1.7330 H       
  39 H39            1.8344     2.3402    -2.7324 H       
  40 H40            4.1183     3.1824    -2.3676 H       
  41 H41            3.5692     2.8194     1.8556 H       
  42 H42            1.2847     1.9829     1.4822 H       
  43 H43            3.3283     5.2987     0.0161 H       
  44 H44            5.9246     8.6657     0.3904 H       
  45 H45            7.8771     7.1681     0.3680 H       
@<TRIPOS>BOND
   1    1    2 1
   2    1   11 1
   3    1    6 1
   4    1   28 1
   5    2    3 1
   6    2   29 1
   7    2   30 1
   8    3    4 1
   9    3   31 1
  10    3   32 1
  11    4    5 1
  12    4   33 1
  13    4   34 1
  14    5    6 1
  15    5    7 1
  16    6   10 2
  17    7    8 1
  18    7   35 1
  19    7   36 1
  20    8    9 1
  21    8   37 1
  22    8   38 1
  23    9   10 am
  24    9   12 2
  25    9   13 2
  26   11   14 ar
  27   11   18 ar
  28   14   15 ar
  29   14   39 1
  30   15   16 ar
  31   15   40 1
  32   16   17 ar
  33   16   19 1
  34   17   18 ar
  35   17   41 1
  36   18   42 1
  37   19   20 1
  38   20   21 ar
  39   20   25 ar
  40   21   22 ar
  41   21   43 1
  42   22   23 ar
  43   22   26 1
  44   23   24 ar
  45   23   44 1
  46   24   25 ar
  47   24   45 1
  48   25   27 1

#	End of record

