#	Name: ASD04590510
#	Creating user name:	WinNT
#	Creation time:	15. 06. 2019 20:50

#	Modifying user name:	WinNT
#	Modification time:	15. 06. 2019 20:50

#	Program:	/corina/corina34_cracker 3.40 0067  02.08.2006

@<TRIPOS>MOLECULE
ASD04590510
  66   71    0    0    0
SMALL
NO_CHARGES


@<TRIPOS>ATOM
   1 C1            -0.0022     1.3944     0.1086 C.ar    
   2 C2             0.0137     0.0074     0.0717 C.ar    
   3 C3             2.4066     0.0254     0.0681 C.ar    
   4 C4             2.3904     1.4308     0.1050 C.ar    
   5 C5             1.1785     2.1069     0.1253 C.ar    
   6 N6             3.7062    -0.3600     0.0553 N.2     
   7 C7             4.4797     0.6983     0.0815 C.2     
   8 N8             3.7127     1.8319     0.1128 N.pl3   
   9 C9             5.9570     0.6715     0.0784 C.2     
  10 C10            6.7675    -0.4869     0.0467 C.2     
  11 C11            8.0623    -0.0857     0.0553 C.2     
  12 N12            8.0773     1.2727     0.0909 N.pl3   
  13 N13            6.7514     1.7238     0.0991 N.2     
  14 N14            6.3125    -1.8147     0.0125 N.am    
  15 C15            7.1984    -2.8300    -0.0155 C.2     
  16 O16            8.3916    -2.5961    -0.0113 O.2     
  17 C17            1.1965    -0.6757     0.0518 C.ar    
  18 C18            6.7197    -4.2269    -0.0515 C.ar    
  19 N19            5.4203    -4.4826     0.0540 N.ar    
  20 C20           -1.2872    -0.7532     0.0540 C.3     
  21 N21           -1.7125    -0.9635    -1.3363 N.3     
  22 C22           -2.8439    -1.8997    -1.4052 C.3     
  23 C23           -0.5934    -1.4371    -2.1637 C.3     
  24 C24           -1.0643    -1.5856    -3.6128 C.3     
  25 O25           -2.1838    -2.4745    -3.6563 O.3     
  26 C26           -3.2923    -2.0436    -2.8620 C.3     
  27 C27            4.9535    -5.7104     0.0262 C.ar    
  28 C28            5.8039    -6.7980    -0.1150 C.ar    
  29 C29            7.1655    -6.5868    -0.2288 C.ar    
  30 C30            7.6385    -5.2744    -0.2026 C.ar    
  31 N31            8.9975    -5.0112    -0.3139 N.pl3   
  32 C32            9.9597    -6.1159    -0.3172 C.3     
  33 C33           11.3564    -5.5652    -0.4480 C.ar    
  34 C34           12.0811    -5.2429     0.6842 C.ar    
  35 C35           13.3622    -4.7377     0.5642 C.ar    
  36 C36           13.9188    -4.5552    -0.6879 C.ar    
  37 C37           13.1944    -4.8783    -1.8201 C.ar    
  38 C38           11.9149    -5.3876    -1.7000 C.ar    
  39 H39           -0.9457     1.9198     0.1198 H       
  40 H40            1.1602     3.1864     0.1536 H       
  41 H41            4.0368     2.7458     0.1361 H       
  42 H42            8.9281    -0.7310     0.0373 H       
  43 H43            8.8690     1.8328     0.1047 H       
  44 H44            5.3606    -2.0013     0.0091 H       
  45 H45            1.1972    -1.7554     0.0238 H       
  46 H46           -1.1506    -1.7182     0.5421 H       
  47 H47           -2.0491    -0.1822     0.5846 H       
  48 H48           -2.5355    -2.8723    -1.0216 H       
  49 H49           -3.6702    -1.5168    -0.8062 H       
  50 H50            0.2232    -0.7165    -2.1184 H       
  51 H51           -0.2490    -2.4022    -1.7922 H       
  52 H52           -1.3583    -0.6107    -4.0017 H       
  53 H53           -0.2541    -1.9907    -4.2191 H       
  54 H54           -4.0934    -2.7799    -2.9252 H       
  55 H55           -3.6511    -1.0820    -3.2290 H       
  56 H56            3.8900    -5.8761     0.1151 H       
  57 H57            5.4052    -7.8015    -0.1354 H       
  58 H58            7.8464    -7.4177    -0.3395 H       
  59 H59            9.3097    -4.0959    -0.3894 H       
  60 H60            9.8751    -6.6742     0.6151 H       
  61 H61            9.7500    -6.7778    -1.1574 H       
  62 H62           11.6463    -5.3854     1.6624 H       
  63 H63           13.9282    -4.4852     1.4487 H       
  64 H64           14.9194    -4.1598    -0.7817 H       
  65 H65           13.6291    -4.7354    -2.7983 H       
  66 H66           11.3490    -5.6401    -2.5845 H       
@<TRIPOS>BOND
   1    1    2 ar
   2    1    5 ar
   3    1   39 1
   4    2   17 ar
   5    2   20 1
   6    3    4 ar
   7    3    6 1
   8    3   17 ar
   9    4    5 ar
  10    4    8 1
  11    5   40 1
  12    6    7 2
  13    7    8 1
  14    7    9 1
  15    8   41 1
  16    9   10 1
  17    9   13 2
  18   10   11 2
  19   10   14 1
  20   11   12 1
  21   11   42 1
  22   12   13 1
  23   12   43 1
  24   14   15 am
  25   14   44 1
  26   15   16 2
  27   15   18 1
  28   17   45 1
  29   18   19 ar
  30   18   30 ar
  31   19   27 ar
  32   20   21 1
  33   20   46 1
  34   20   47 1
  35   21   22 1
  36   21   23 1
  37   22   26 1
  38   22   48 1
  39   22   49 1
  40   23   24 1
  41   23   50 1
  42   23   51 1
  43   24   25 1
  44   24   52 1
  45   24   53 1
  46   25   26 1
  47   26   54 1
  48   26   55 1
  49   27   28 ar
  50   27   56 1
  51   28   29 ar
  52   28   57 1
  53   29   30 ar
  54   29   58 1
  55   30   31 1
  56   31   32 1
  57   31   59 1
  58   32   33 1
  59   32   60 1
  60   32   61 1
  61   33   34 ar
  62   33   38 ar
  63   34   35 ar
  64   34   62 1
  65   35   36 ar
  66   35   63 1
  67   36   37 ar
  68   36   64 1
  69   37   38 ar
  70   37   65 1
  71   38   66 1

#	End of record

