#	Name: ASD02198315
#	Creating user name:	WinNT
#	Creation time:	15. 06. 2019 20:19

#	Modifying user name:	WinNT
#	Modification time:	15. 06. 2019 20:19

#	Program:	/corina/corina34_cracker 3.40 0067  02.08.2006

@<TRIPOS>MOLECULE
ASD02198315
  38   40    0    0    0
SMALL
NO_CHARGES


@<TRIPOS>ATOM
   1 C1             1.8263     1.1551    -2.7574 C.2     
   2 C2             1.3503    -0.1355    -2.8937 C.2     
   3 S3             2.1971     1.4119    -1.0544 S.3     
   4 C4             1.6978    -0.1806    -0.6883 C.2     
   5 N5             1.3029    -0.8005    -1.7630 N.2     
   6 N6             0.9598    -0.6759    -4.1088 N.pl3   
   7 C7             1.9909     2.0937    -3.7942 C.2     
   8 C8             1.8560     3.5385    -3.5116 C.ar    
   9 O9             2.2447     1.7147    -4.9252 O.2     
  10 N10            1.7119    -0.7340     0.5728 N.pl3   
  11 C11            1.3898    -2.0842     0.7479 C.ar    
  12 C12            2.3932    -3.0456     0.7448 C.ar    
  13 C13            2.1510     4.4764    -4.5036 C.ar    
  14 C14            1.4277     3.9688    -2.2538 C.ar    
  15 C15            1.3027     5.3158    -1.9944 C.ar    
  16 C16            1.6022     6.2462    -2.9823 C.ar    
  17 C17            2.0236     5.8217    -4.2366 C.ar    
  18 C18            2.0713    -4.3786     0.9185 C.ar    
  19 C19            0.7527    -4.7558     1.0954 C.ar    
  20 C20           -0.2484    -3.8019     1.0986 C.ar    
  21 C21            0.0664    -2.4665     0.9311 C.ar    
  22 O22            1.4779     7.5729    -2.7229 O.3     
  23 C23            1.8022     8.4744    -3.7832 C.3     
  24 Cl24          -1.1912    -1.2698     0.9360 Cl      
  25 Cl25           4.0488    -2.5733     0.5223 Cl      
  26 F26            3.1362     8.2887    -4.1616 F       
  27 F27            0.9679     8.2256    -4.8783 F       
  28 H28            1.0140    -0.1420    -4.9168 H       
  29 H29            0.6324    -1.5880    -4.1512 H       
  30 H30            1.9450    -0.1876     1.3396 H       
  31 H31            2.4788     4.1473    -5.4785 H       
  32 H32            1.1944     3.2463    -1.4857 H       
  33 H33            0.9712     5.6493    -1.0221 H       
  34 H34            2.2555     6.5477    -5.0019 H       
  35 H35            2.8505    -5.1264     0.9159 H       
  36 H36            0.5042    -5.7980     1.2309 H       
  37 H37           -1.2772    -4.1003     1.2366 H       
  38 H38            1.6602     9.5004    -3.4439 H       
@<TRIPOS>BOND
   1    1    2 2
   2    1    3 1
   3    1    7 1
   4    2    6 1
   5    2    5 1
   6    3    4 1
   7    4    5 2
   8    4   10 1
   9    6   28 1
  10    6   29 1
  11    7    8 1
  12    7    9 2
  13    8   13 ar
  14    8   14 ar
  15   10   11 1
  16   10   30 1
  17   11   12 ar
  18   11   21 ar
  19   12   18 ar
  20   12   25 1
  21   13   17 ar
  22   13   31 1
  23   14   15 ar
  24   14   32 1
  25   15   16 ar
  26   15   33 1
  27   16   17 ar
  28   16   22 1
  29   17   34 1
  30   18   19 ar
  31   18   35 1
  32   19   20 ar
  33   19   36 1
  34   20   21 ar
  35   20   37 1
  36   21   24 1
  37   22   23 1
  38   23   26 1
  39   23   27 1
  40   23   38 1

#	End of record

