#	Name: ASD05143063
#	Creating user name:	WinNT
#	Creation time:	15. 06. 2019 20:57

#	Modifying user name:	WinNT
#	Modification time:	15. 06. 2019 20:57

#	Program:	/corina/corina34_cracker 3.40 0067  02.08.2006

@<TRIPOS>MOLECULE
ASD05143063
 148  152    0    0    0
SMALL
NO_CHARGES


@<TRIPOS>ATOM
   1 C1            -0.1234     4.5335     0.5771 C.2     
   2 C2            -0.2174     3.1419     1.1477 C.3     
   3 N3             1.0835     5.0832     0.3369 N.am    
   4 O4            -1.1338     5.1569     0.3293 O.2     
   5 C5             1.1750     6.4361    -0.2178 C.3     
   6 C6             0.5016     7.4249     0.7359 C.3     
   7 C7             0.4830     6.4782    -1.5559 C.2     
   8 C8             1.2795     7.4739     2.0525 C.3     
   9 C9             0.6062     8.4628     3.0062 C.3     
  10 N10            1.3510     8.5097     4.2669 N.pl3   
  11 C11            0.9307     9.3344     5.2834 C.2     
  12 N12           -0.1886    10.1152     5.1168 N.pl3   
  13 N13            1.5934     9.3761     6.4050 N.2     
  14 O14           -0.3294     5.6255    -1.8455 O.2     
  15 N15            0.7669     7.4633    -2.4307 N.am    
  16 C16            0.0942     7.5042    -3.7315 C.3     
  17 C17            0.0806     8.9423    -4.2535 C.3     
  18 C18           -0.4757     9.8717    -3.1731 C.3     
  19 C19            0.3561    11.1550    -3.1267 C.3     
  20 N20            1.7845    10.8121    -3.1137 N.3     
  21 C21            2.6080    11.9953    -2.8314 C.3     
  22 C22            3.9750    11.8356    -3.4997 C.3     
  23 C23            4.9832    12.7714    -2.8299 C.3     
  24 C24            6.0986    13.1113    -3.8206 C.3     
  25 N25            7.2156    12.1659    -3.6251 N.am    
  26 C26            6.5795    14.5184    -3.5760 C.2     
  27 N27            5.8793    15.5635    -4.0595 N.am    
  28 O28            7.5967    14.7103    -2.9440 O.2     
  29 C29            7.5045    11.3395    -4.6680 C.2     
  30 O30            6.8573    11.3913    -5.6923 O.2     
  31 C31            8.6414    10.3598    -4.5299 C.3     
  32 N32            8.5247     9.3421    -5.5989 N.am    
  33 C33            9.9744    11.0981    -4.6677 C.3     
  34 C34            8.2830     8.0682    -5.1682 C.2     
  35 O35            8.1699     7.8276    -3.9849 O.2     
  36 C36            8.1590     6.9676    -6.1898 C.3     
  37 N37            7.5103     5.8010    -5.5583 N.am    
  38 C38            7.3084     7.4529    -7.3654 C.3     
  39 C39            6.3298     5.3939    -6.0997 C.2     
  40 O40            5.8577     5.9768    -7.0527 O.2     
  41 C41            5.6170     4.2093    -5.5001 C.3     
  42 C42           11.1084    10.1402    -4.4077 C.2     
  43 C43           11.7289     9.2394    -5.3820 C.ar    
  44 C44           12.7352     8.5465    -4.6849 C.ar    
  45 N45           12.7166     9.0020    -3.3857 N.pl3   
  46 C46           11.7453     9.9548    -3.2407 C.2     
  47 C47           11.5148     8.9796    -6.7372 C.ar    
  48 C48           12.2853     8.0524    -7.3800 C.ar    
  49 C49           13.2795     7.3656    -6.6964 C.ar    
  50 C50           13.5082     7.6068    -5.3596 C.ar    
  51 N51            4.2073     4.2270    -5.9536 N.am    
  52 C52            5.6666     4.2989    -3.9735 C.3     
  53 C53            7.0831     4.0890    -3.5037 C.ar    
  54 C54            7.7678     5.1213    -2.8912 C.ar    
  55 C55            9.0682     4.9284    -2.4595 C.ar    
  56 C56            9.6821     3.7021    -2.6414 C.ar    
  57 C57            8.9961     2.6703    -3.2543 C.ar    
  58 C58            7.6953     2.8620    -3.6805 C.ar    
  59 C59            0.8317     6.6227    -4.7064 C.2     
  60 O60            1.1849     7.0566    -5.7825 O.2     
  61 C61            7.4037     6.4464    -8.5137 C.3     
  62 C62            6.4359     6.8504    -9.6277 C.3     
  63 N63            6.5272     5.8866   -10.7272 N.pl3   
  64 C64            5.7449     6.0448   -11.8467 C.2     
  65 N65            5.8306     5.1403   -12.8786 N.pl3   
  66 N66            4.9220     7.0522   -11.9298 N.2     
  67 N67            1.0962     5.3324    -4.3616 N.am    
  68 C68            1.8245     4.5192    -5.3558 C.3     
  69 C69            3.2835     4.4837    -4.9805 C.2     
  70 O70            3.6314     4.6790    -3.8352 O.2     
  71 C71            1.6672     5.1440    -6.7435 C.3     
  72 C72            0.2023     5.2838    -7.0683 C.2     
  73 C73           -0.4240     6.4212    -7.4257 C.2     
  74 N74           -1.7396     6.1021    -7.6280 N.pl3   
  75 C75           -1.8716     4.7799    -7.3871 C.2     
  76 N76           -0.7052     4.2962    -7.0577 N.2     
  77 Cl77           9.9293     6.2249    -1.6904 Cl      
  78 H78            0.2831     3.1115     2.1155 H       
  79 H79           -1.2657     2.8703     1.2721 H       
  80 H80            0.2623     2.4374     0.4683 H       
  81 H81            1.8916     4.5831     0.5313 H       
  82 H82            2.2233     6.7077    -0.3422 H       
  83 H83            0.4909     8.4164     0.2832 H       
  84 H84           -0.5215     7.1031     0.9301 H       
  85 H85            1.2903     6.4824     2.5052 H       
  86 H86            2.3027     7.7958     1.8583 H       
  87 H87            0.5954     9.4543     2.5535 H       
  88 H88           -0.4170     8.1409     3.2005 H       
  89 H89            2.1407     7.9588     4.3844 H       
  90 H90           -0.6818    10.0842     4.2822 H       
  91 H91           -0.4852    10.6971     5.8340 H       
  92 H92            1.2968     9.9580     7.1222 H       
  93 H93            1.4167     8.1453    -2.1990 H       
  94 H94           -0.9300     7.1476    -3.6222 H       
  95 H95            1.0961     9.2465    -4.5069 H       
  96 H96           -0.5485     9.0004    -5.1418 H       
  97 H97           -1.5119    10.1185    -3.4043 H       
  98 H98           -0.4283     9.3729    -2.2051 H       
  99 H99            0.1362    11.7624    -4.0047 H       
 100 H100           0.1088    11.7159    -2.2255 H       
 101 H101           1.9731    10.0740    -2.4521 H       
 102 H102           2.1135    12.8841    -3.2232 H       
 103 H103           2.7398    12.0977    -1.7542 H       
 104 H104           4.3120    10.8042    -3.3956 H       
 105 H105           3.8938    12.0861    -4.5574 H       
 106 H106           4.4794    13.6875    -2.5215 H       
 107 H107           5.4106    12.2797    -1.9561 H       
 108 H108           5.7209    13.0246    -4.8394 H       
 109 H109           7.7182    12.1352    -2.7960 H       
 110 H110           5.0657    15.4100    -4.5650 H       
 111 H111           6.1888    16.4692    -3.9021 H       
 112 H112           8.5891     9.8742    -3.5555 H       
 113 H113           8.6133     9.5642    -6.5389 H       
 114 H114          10.0637    11.5016    -5.6763 H       
 115 H115          10.0146    11.9134    -3.9454 H       
 116 H116           9.1501     6.6862    -6.5456 H       
 117 H117           7.9054     5.3480    -4.7970 H       
 118 H118           6.2695     7.5453    -7.0485 H       
 119 H119           7.6733     8.4234    -7.7016 H       
 120 H120           6.0964     3.2880    -5.8309 H       
 121 H121          13.3067     8.6957    -2.6794 H       
 122 H122          11.5194    10.4749    -2.3216 H       
 123 H123          10.7428     9.5096    -7.2752 H       
 124 H124          12.1194     7.8518    -8.4281 H       
 125 H125          13.8802     6.6352    -7.2181 H       
 126 H126          14.2842     7.0676    -4.8367 H       
 127 H127           3.9573     4.0677    -6.8772 H       
 128 H128           5.3204     5.2824    -3.6558 H       
 129 H129           5.0237     3.5309    -3.5434 H       
 130 H130           7.2882     6.0786    -2.7497 H       
 131 H131          10.6971     3.5511    -2.3050 H       
 132 H132           9.4752     1.7129    -3.3963 H       
 133 H133           7.1596     2.0555    -4.1590 H       
 134 H134           8.4217     6.4349    -8.9033 H       
 135 H135           7.1432     5.4529    -8.1486 H       
 136 H136           5.4179     6.8618    -9.2381 H       
 137 H137           6.6964     7.8439    -9.9928 H       
 138 H138           7.1395     5.1369   -10.6654 H       
 139 H139           6.4429     4.3906   -12.8168 H       
 140 H140           5.2786     5.2519   -13.6685 H       
 141 H141           4.3701     7.1638   -12.7196 H       
 142 H142           0.8200     4.9661    -3.5069 H       
 143 H143           1.4243     3.5054    -5.3621 H       
 144 H144           2.1373     6.1273    -6.7546 H       
 145 H145           2.1446     4.5046    -7.4861 H       
 146 H146           0.0253     7.3975    -7.5319 H       
 147 H147          -2.4454     6.7118    -7.8947 H       
 148 H148          -2.7896     4.2155    -7.4590 H       
@<TRIPOS>BOND
   1    1    2 1
   2    1    3 am
   3    1    4 2
   4    2   78 1
   5    2   79 1
   6    2   80 1
   7    3    5 1
   8    3   81 1
   9    5    6 1
  10    5    7 1
  11    5   82 1
  12    6    8 1
  13    6   83 1
  14    6   84 1
  15    7   14 2
  16    7   15 am
  17    8    9 1
  18    8   85 1
  19    8   86 1
  20    9   10 1
  21    9   87 1
  22    9   88 1
  23   10   11 1
  24   10   89 1
  25   11   12 1
  26   11   13 2
  27   12   90 1
  28   12   91 1
  29   13   92 1
  30   15   16 1
  31   15   93 1
  32   16   17 1
  33   16   59 1
  34   16   94 1
  35   17   18 1
  36   17   95 1
  37   17   96 1
  38   18   19 1
  39   18   97 1
  40   18   98 1
  41   19   20 1
  42   19   99 1
  43   19  100 1
  44   20   21 1
  45   20  101 1
  46   21   22 1
  47   21  102 1
  48   21  103 1
  49   22   23 1
  50   22  104 1
  51   22  105 1
  52   23   24 1
  53   23  106 1
  54   23  107 1
  55   24   25 1
  56   24   26 1
  57   24  108 1
  58   25   29 am
  59   25  109 1
  60   26   27 am
  61   26   28 2
  62   27  110 1
  63   27  111 1
  64   29   30 2
  65   29   31 1
  66   31   32 1
  67   31   33 1
  68   31  112 1
  69   32   34 am
  70   32  113 1
  71   33   42 1
  72   33  114 1
  73   33  115 1
  74   34   35 2
  75   34   36 1
  76   36   37 1
  77   36   38 1
  78   36  116 1
  79   37   39 am
  80   37  117 1
  81   38   61 1
  82   38  118 1
  83   38  119 1
  84   39   40 2
  85   39   41 1
  86   41   51 1
  87   41   52 1
  88   41  120 1
  89   42   43 1
  90   42   46 2
  91   43   44 ar
  92   43   47 ar
  93   44   45 1
  94   44   50 ar
  95   45   46 1
  96   45  121 1
  97   46  122 1
  98   47   48 ar
  99   47  123 1
 100   48   49 ar
 101   48  124 1
 102   49   50 ar
 103   49  125 1
 104   50  126 1
 105   51   69 am
 106   51  127 1
 107   52   53 1
 108   52  128 1
 109   52  129 1
 110   53   54 ar
 111   53   58 ar
 112   54   55 ar
 113   54  130 1
 114   55   56 ar
 115   55   77 1
 116   56   57 ar
 117   56  131 1
 118   57   58 ar
 119   57  132 1
 120   58  133 1
 121   59   60 2
 122   59   67 am
 123   61   62 1
 124   61  134 1
 125   61  135 1
 126   62   63 1
 127   62  136 1
 128   62  137 1
 129   63   64 1
 130   63  138 1
 131   64   65 1
 132   64   66 2
 133   65  139 1
 134   65  140 1
 135   66  141 1
 136   67   68 1
 137   67  142 1
 138   68   69 1
 139   68   71 1
 140   68  143 1
 141   69   70 2
 142   71   72 1
 143   71  144 1
 144   71  145 1
 145   72   73 2
 146   72   76 1
 147   73   74 1
 148   73  146 1
 149   74   75 1
 150   74  147 1
 151   75   76 2
 152   75  148 1

#	End of record

