#	Name: ASD03912029
#	Creating user name:	WinNT
#	Creation time:	15. 06. 2019 20:47

#	Modifying user name:	WinNT
#	Modification time:	15. 06. 2019 20:47

#	Program:	/corina/corina34_cracker 3.40 0067  02.08.2006

@<TRIPOS>MOLECULE
ASD03912029
  62   64    0    0    0
SMALL
NO_CHARGES


@<TRIPOS>ATOM
   1 C1             0.5054     1.3613     0.1779 C.ar    
   2 C2             0.6900     0.1711     0.8571 C.ar    
   3 C3            -0.3732    -0.4309     1.5048 C.ar    
   4 C4            -1.6234     0.1553     1.4748 C.ar    
   5 C5            -1.8121     1.3506     0.7936 C.ar    
   6 C6            -0.7409     1.9557     0.1492 C.ar    
   7 C7             1.6668     2.0138    -0.5267 C.3     
   8 C8            -0.1675    -1.7280     2.2439 C.3     
   9 N9            -3.0774     1.9470     0.7612 N.am    
  10 C10           -3.1894     3.2901     0.7535 C.2     
  11 C11           -4.5437     3.9324     0.5977 C.3     
  12 O12           -2.2002     3.9818     0.8719 O.2     
  13 C13           -4.3943     5.4318     0.6212 C.ar    
  14 C14           -4.1867     6.1232    -0.5581 C.ar    
  15 C15           -4.0494     7.4977    -0.5392 C.ar    
  16 C16           -4.1199     8.1842     0.6642 C.ar    
  17 C17           -4.3282     7.4882     1.8461 C.ar    
  18 C18           -4.4706     6.1143     1.8212 C.ar    
  19 O19           -3.9847     9.5363     0.6855 O.3     
  20 C20           -4.1833    10.1886     1.9413 C.3     
  21 C21           -5.5533     9.8653     2.4795 C.2     
  22 C22           -3.1044     9.7422     2.9436 C.3     
  23 C23           -2.3294    11.0121     3.3514 C.3     
  24 C24           -3.3238    12.1680     3.0788 C.3     
  25 C25           -4.0275    11.7143     1.7749 C.3     
  26 N26           -6.5897     9.7065     1.6327 N.am    
  27 O27           -5.7232     9.7479     3.6746 O.2     
  28 C28           -7.8962     9.2857     2.1448 C.3     
  29 C29           -8.9783     9.7547     1.2067 C.2     
  30 O30          -10.2647     9.4815     1.4757 O.3     
  31 O31           -8.6880    10.3766     0.2123 O.2     
  32 C32           -7.9364     7.7597     2.2475 C.3     
  33 H33            1.6665    -0.2896     0.8815 H       
  34 H34           -2.4535    -0.3157     1.9803 H       
  35 H35           -0.8844     2.8855    -0.3811 H       
  36 H36            1.7218     1.6481    -1.5520 H       
  37 H37            1.5268     3.0948    -0.5335 H       
  38 H38            2.5919     1.7706    -0.0041 H       
  39 H39            0.1071    -1.5177     3.2775 H       
  40 H40           -1.0903    -2.3078     2.2239 H       
  41 H41            0.6293    -2.2968     1.7647 H       
  42 H42           -3.8741     1.3938     0.7444 H       
  43 H43           -4.9842     3.6260    -0.3510 H       
  44 H44           -5.1909     3.6189     1.4169 H       
  45 H45           -4.1315     5.5883    -1.4946 H       
  46 H46           -3.8869     8.0373    -1.4605 H       
  47 H47           -4.3835     8.0204     2.7842 H       
  48 H48           -4.6328     5.5719     2.7410 H       
  49 H49           -3.5718     9.2925     3.8196 H       
  50 H50           -2.4293     9.0280     2.4720 H       
  51 H51           -2.0672    10.9759     4.4088 H       
  52 H52           -1.4348    11.1262     2.7393 H       
  53 H53           -4.0425    12.2594     3.8932 H       
  54 H54           -2.7919    13.1068     2.9244 H       
  55 H55           -3.4073    11.9415     0.9078 H       
  56 H56           -5.0034    12.1908     1.6824 H       
  57 H57           -6.4706     9.8708     0.6842 H       
  58 H58           -8.0570     9.7206     3.1313 H       
  59 H59          -10.9230     9.8030     0.8446 H       
  60 H60           -7.1537     7.4205     2.9261 H       
  61 H61           -8.9084     7.4466     2.6285 H       
  62 H62           -7.7756     7.3248     1.2610 H       
@<TRIPOS>BOND
   1    1    2 ar
   2    1    7 1
   3    1    6 ar
   4    2    3 ar
   5    2   33 1
   6    3    4 ar
   7    3    8 1
   8    4    5 ar
   9    4   34 1
  10    5    6 ar
  11    5    9 1
  12    6   35 1
  13    7   36 1
  14    7   37 1
  15    7   38 1
  16    8   39 1
  17    8   40 1
  18    8   41 1
  19    9   10 am
  20    9   42 1
  21   10   11 1
  22   10   12 2
  23   11   13 1
  24   11   43 1
  25   11   44 1
  26   13   14 ar
  27   13   18 ar
  28   14   15 ar
  29   14   45 1
  30   15   16 ar
  31   15   46 1
  32   16   17 ar
  33   16   19 1
  34   17   18 ar
  35   17   47 1
  36   18   48 1
  37   19   20 1
  38   20   21 1
  39   20   22 1
  40   20   25 1
  41   21   26 am
  42   21   27 2
  43   22   23 1
  44   22   49 1
  45   22   50 1
  46   23   24 1
  47   23   51 1
  48   23   52 1
  49   24   25 1
  50   24   53 1
  51   24   54 1
  52   25   55 1
  53   25   56 1
  54   26   28 1
  55   26   57 1
  56   28   29 1
  57   28   32 1
  58   28   58 1
  59   29   30 1
  60   29   31 2
  61   30   59 1
  62   32   60 1
  63   32   61 1
  64   32   62 1

#	End of record

