#	Name: ASD02560133
#	Creating user name:	WinNT
#	Creation time:	15. 06. 2019 20:24

#	Modifying user name:	WinNT
#	Modification time:	15. 06. 2019 20:24

#	Program:	/corina/corina34_cracker 3.40 0067  02.08.2006

@<TRIPOS>MOLECULE
ASD02560133
  56   60    0    0    0
SMALL
NO_CHARGES


@<TRIPOS>ATOM
   1 N1             0.0966     1.3329     0.3974 N.2     
   2 N2            -0.1351     0.1314     0.2299 N.2     
   3 C3             1.5227     1.6299     0.2112 C.3     
   4 N4             2.1970     0.3090     0.2833 N.3     
   5 C5             1.0917    -0.6052    -0.1003 C.3     
   6 S6             1.1825    -2.1429     0.8578 S.3     
   7 C7             1.0325    -1.5657     2.5709 C.3     
   8 C8             1.0910    -2.7463     3.5057 C.2     
   9 O9             1.2212    -3.8668     3.0601 O.2     
  10 N10            0.9988    -2.5570     4.8369 N.am    
  11 Br11           1.8258     2.4584    -1.5458 Br      
  12 C12            3.2467     0.2338    -0.6296 C.ar    
  13 C13            0.9925    -3.6577     5.7016 C.ar    
  14 C14            0.3127    -3.5888     6.9120 C.ar    
  15 C15            0.3084    -4.6777     7.7628 C.ar    
  16 C16            0.9794    -5.8346     7.4107 C.ar    
  17 C17            1.6564    -5.9058     6.2073 C.ar    
  18 C18            1.6604    -4.8226     5.3496 C.ar    
  19 Cl19          -0.5293    -2.1366     7.3546 Cl      
  20 S20            0.9721    -7.2208     8.4984 S.o2    
  21 O21            2.1233    -7.9892     8.1768 O.2     
  22 O22            0.7180    -6.7086     9.7993 O.2     
  23 C23            4.3280     1.1373    -0.5475 C.ar    
  24 C24            3.2416    -0.7275    -1.6180 C.ar    
  25 C25            4.2854    -0.8113    -2.5343 C.ar    
  26 C26            5.3385     0.0503    -2.4811 C.ar    
  27 C27            5.3846     1.0417    -1.4864 C.ar    
  28 C28            6.4589     1.9449    -1.4079 C.ar    
  29 C29            6.4716     2.8932    -0.4317 C.ar    
  30 C30            5.4338     2.9836     0.4938 C.ar    
  31 C31            4.3757     2.1279     0.4456 C.ar    
  32 N32           -0.3380    -8.1512     8.0980 N.am    
  33 C33            6.4564    -0.0625    -3.4855 C.3     
  34 C34            7.2336    -1.3796    -3.5324 C.3     
  35 C35            6.2587    -1.0261    -4.6573 C.3     
  36 H36            1.8814     2.2831     1.0067 H       
  37 H37            1.1298    -0.8197    -1.1684 H       
  38 H38            1.8509    -0.8822     2.7971 H       
  39 H39            0.0815    -1.0484     2.6981 H       
  40 H40            0.9368    -1.6580     5.1958 H       
  41 H41           -0.2192    -4.6251     8.7037 H       
  42 H42            2.1796    -6.8106     5.9357 H       
  43 H43            2.1895    -4.8793     4.4099 H       
  44 H44            2.4183    -1.4236    -1.6816 H       
  45 H45            4.2601    -1.5725    -3.3000 H       
  46 H46            7.2703     1.8864    -2.1183 H       
  47 H47            7.2983     3.5857    -0.3733 H       
  48 H48            5.4678     3.7452     1.2588 H       
  49 H49            3.5784     2.2095     1.1695 H       
  50 H50           -0.9240    -7.8780     7.3748 H       
  51 H51           -0.5194    -8.9692     8.5865 H       
  52 H52            7.0109     0.8562    -3.6769 H       
  53 H53            8.2994    -1.3274    -3.7551 H       
  54 H54            6.9364    -2.1644    -2.8369 H       
  55 H55            5.3200    -1.5785    -4.7019 H       
  56 H56            6.6830    -0.7414    -5.6201 H       
@<TRIPOS>BOND
   1    1    2 2
   2    1    3 1
   3    2    5 1
   4    3    4 1
   5    3   11 1
   6    3   36 1
   7    4    5 1
   8    4   12 1
   9    5    6 1
  10    5   37 1
  11    6    7 1
  12    7    8 1
  13    7   38 1
  14    7   39 1
  15    8    9 2
  16    8   10 am
  17   10   13 1
  18   10   40 1
  19   12   23 ar
  20   12   24 ar
  21   13   14 ar
  22   13   18 ar
  23   14   15 ar
  24   14   19 1
  25   15   16 ar
  26   15   41 1
  27   16   17 ar
  28   16   20 1
  29   17   18 ar
  30   17   42 1
  31   18   43 1
  32   20   21 2
  33   20   22 2
  34   20   32 am
  35   23   27 ar
  36   23   31 ar
  37   24   25 ar
  38   24   44 1
  39   25   26 ar
  40   25   45 1
  41   26   27 ar
  42   26   33 1
  43   27   28 ar
  44   28   29 ar
  45   28   46 1
  46   29   30 ar
  47   29   47 1
  48   30   31 ar
  49   30   48 1
  50   31   49 1
  51   32   50 1
  52   32   51 1
  53   33   34 1
  54   33   35 1
  55   33   52 1
  56   34   35 1
  57   34   53 1
  58   34   54 1
  59   35   55 1
  60   35   56 1

#	End of record

