#	Name: ASD01230018
#	Creating user name:	WinNT
#	Creation time:	15. 06. 2019 19:11

#	Modifying user name:	WinNT
#	Modification time:	15. 06. 2019 19:11

#	Program:	/corina/corina34_cracker 3.40 0067  02.08.2006

@<TRIPOS>MOLECULE
ASD01230018
  54   56    0    0    0
SMALL
NO_CHARGES


@<TRIPOS>ATOM
   1 C1            -0.0187     1.5258     0.0104 C.3     
   2 C2             0.0021    -0.0041     0.0020 C.3     
   3 C3            -1.4333    -0.5336     0.0129 C.3     
   4 S4             0.8511    -0.5891    -1.4904 S.o2    
   5 O5             1.0544    -1.9942    -1.4301 O.2     
   6 O6             0.3011     0.0225    -2.6492 O.2     
   7 N7             2.3749     0.0492    -1.3760 N.am    
   8 C8             4.2206    -1.4886    -0.7731 C.3     
   9 C9             3.2670    -0.3739    -0.2937 C.3     
  10 C10            4.2446     0.7584     0.0857 C.3     
  11 C11            5.5396     0.0605     0.4434 C.ar    
  12 C12            6.6396     0.5210     1.1437 C.ar    
  13 C13            7.7339    -0.3134     1.3530 C.ar    
  14 C14            7.7151    -1.6142     0.8536 C.ar    
  15 C15            6.6143    -2.0650     0.1566 C.ar    
  16 C16            5.5260    -1.2317    -0.0502 C.ar    
  17 C17            8.9150     0.1800     2.1038 C.ar    
  18 C18           10.0088    -0.6560     2.3122 C.ar    
  19 C19           11.1095    -0.1888     3.0147 C.ar    
  20 C20           11.1179     1.1107     3.5082 C.ar    
  21 C21           10.0319     1.9392     3.3007 C.ar    
  22 C22            8.9346     1.4832     2.5972 C.ar    
  23 N23           12.2090    -1.0239     3.2268 N.am    
  24 S24           13.7088    -0.3696     3.4812 S.o2    
  25 O25           14.6098    -1.3788     3.0464 O.2     
  26 O26           13.6549     0.8933     2.8322 O.2     
  27 C27           13.8108    -0.1572     5.2798 C.3     
  28 C28           12.0353    -2.4786     3.2241 C.3     
  29 H29            1.0039     1.9031     0.0027 H       
  30 H30           -0.5459     1.8868    -0.8726 H       
  31 H31           -0.5289     1.8773     0.9072 H       
  32 H32            0.5293    -0.3651     0.8851 H       
  33 H33           -1.9605    -0.1726    -0.8702 H       
  34 H34           -1.4185    -1.6235     0.0069 H       
  35 H35           -1.9435    -0.1821     0.9097 H       
  36 H36            2.6768     0.7033    -2.0256 H       
  37 H37            3.8247    -2.4674    -0.5023 H       
  38 H38            4.3663    -1.4239    -1.8514 H       
  39 H39            2.6933    -0.7012     0.5734 H       
  40 H40            4.3968     1.4266    -0.7620 H       
  41 H41            3.8652     1.3143     0.9430 H       
  42 H42            6.6498     1.5300     1.5286 H       
  43 H43            8.5606    -2.2673     1.0117 H       
  44 H44            6.5997    -3.0732    -0.2304 H       
  45 H45            9.9999    -1.6654     1.9282 H       
  46 H46           11.9753     1.4734     4.0555 H       
  47 H47           10.0430     2.9481     3.6860 H       
  48 H48            8.0896     2.1354     2.4329 H       
  49 H49           13.7016    -1.1262     5.7669 H       
  50 H50           14.7775     0.2737     5.5406 H       
  51 H51           13.0146     0.5086     5.6128 H       
  52 H52           12.1724    -2.8590     2.2119 H       
  53 H53           12.7720    -2.9337     3.8862 H       
  54 H54           11.0323    -2.7254     3.5723 H       
@<TRIPOS>BOND
   1    1    2 1
   2    1   29 1
   3    1   30 1
   4    1   31 1
   5    2    3 1
   6    2    4 1
   7    2   32 1
   8    3   33 1
   9    3   34 1
  10    3   35 1
  11    4    5 2
  12    4    6 2
  13    4    7 am
  14    7    9 1
  15    7   36 1
  16    8    9 1
  17    8   16 1
  18    8   37 1
  19    8   38 1
  20    9   10 1
  21    9   39 1
  22   10   11 1
  23   10   40 1
  24   10   41 1
  25   11   12 ar
  26   11   16 ar
  27   12   13 ar
  28   12   42 1
  29   13   14 ar
  30   13   17 1
  31   14   15 ar
  32   14   43 1
  33   15   16 ar
  34   15   44 1
  35   17   18 ar
  36   17   22 ar
  37   18   19 ar
  38   18   45 1
  39   19   20 ar
  40   19   23 1
  41   20   21 ar
  42   20   46 1
  43   21   22 ar
  44   21   47 1
  45   22   48 1
  46   23   24 am
  47   23   28 1
  48   24   25 2
  49   24   26 2
  50   24   27 1
  51   27   49 1
  52   27   50 1
  53   27   51 1
  54   28   52 1
  55   28   53 1
  56   28   54 1

#	End of record

