#	Name: ASD08150574
#	Creating user name:	WinNT
#	Creation time:	15. 06. 2019 21:16

#	Modifying user name:	WinNT
#	Modification time:	15. 06. 2019 21:16

#	Program:	/corina/corina34_cracker 3.40 0067  02.08.2006

@<TRIPOS>MOLECULE
ASD08150574
  47   51    0    0    0
SMALL
NO_CHARGES


@<TRIPOS>ATOM
   1 N1             0.1505     1.5365     1.9425 N.am    
   2 C2             0.2374     0.2784     2.4164 C.2     
   3 C3             1.4550    -0.4303     2.3688 C.2     
   4 C4             2.5630     0.1499     1.8413 C.2     
   5 C5             2.4751     1.4732     1.3414 C.ar    
   6 C6             3.5940     2.1210     0.7838 C.ar    
   7 N7             3.5101     3.3416     0.3229 N.ar    
   8 C8             2.3667     4.0430     0.3530 C.ar    
   9 C9             1.1904     3.4702     0.8964 C.ar    
  10 C10            1.2478     2.1510     1.4039 C.ar    
  11 C11           -0.0077     5.4992     0.4164 C.ar    
  12 C12            1.1604     6.0594    -0.1194 C.ar    
  13 C13            2.3217     5.3525    -0.1530 C.ar    
  14 O14           -0.7503    -0.2542     2.8931 O.2     
  15 C15           -1.0720     2.2175     1.9963 C.ar    
  16 C16           -1.9816     2.0966     0.9542 C.ar    
  17 C17           -3.1870     2.7686     1.0094 C.ar    
  18 C18           -3.4884     3.5630     2.1029 C.ar    
  19 C19           -2.5822     3.6853     3.1433 C.ar    
  20 C20           -1.3787     3.0102     3.0948 C.ar    
  21 C21            0.0040     4.2098     0.9233 C.ar    
  22 C22           -1.2617     6.2908     0.4415 C.ar    
  23 C23           -2.4893     5.6754     0.2138 C.ar    
  24 F24           -4.6678     4.2199     2.1548 F       
  25 C25           -1.6537     1.2330    -0.2365 C.3     
  26 N26           -3.6064     6.3746     0.2351 N.ar    
  27 C27           -3.6087     7.6777     0.4719 C.ar    
  28 C28           -2.4197     8.3625     0.7091 C.ar    
  29 C29           -1.2276     7.6662     0.7004 C.ar    
  30 N30           -4.8128     8.3704     0.4833 N.pl3   
  31 H31            1.5066    -1.4381     2.7537 H       
  32 H32            3.4982    -0.3890     1.8034 H       
  33 H33            4.5389     1.6002     0.7361 H       
  34 H34            1.1376     7.0656    -0.5109 H       
  35 H35            3.2121     5.7995    -0.5697 H       
  36 H36           -3.8948     2.6748     0.1991 H       
  37 H37           -2.8189     4.3059     3.9949 H       
  38 H38           -0.6725     3.1058     3.9062 H       
  39 H39           -0.8964     3.7791     1.3358 H       
  40 H40           -2.5267     4.6141     0.0172 H       
  41 H41           -2.0034     0.2166    -0.0555 H       
  42 H42           -2.1455     1.6341    -1.1227 H       
  43 H43           -0.5750     1.2237    -0.3925 H       
  44 H44           -2.4303     9.4251     0.9014 H       
  45 H45           -0.2906     8.1717     0.8816 H       
  46 H46           -5.6448     7.8997     0.3186 H       
  47 H47           -4.8217     9.3249     0.6561 H       
@<TRIPOS>BOND
   1    1    2 am
   2    1   10 1
   3    1   15 1
   4    2    3 1
   5    2   14 2
   6    3    4 2
   7    3   31 1
   8    4    5 1
   9    4   32 1
  10    5    6 ar
  11    5   10 ar
  12    6    7 ar
  13    6   33 1
  14    7    8 ar
  15    8    9 ar
  16    8   13 ar
  17    9   10 ar
  18    9   21 ar
  19   11   12 ar
  20   11   22 1
  21   11   21 ar
  22   12   13 ar
  23   12   34 1
  24   13   35 1
  25   15   16 ar
  26   15   20 ar
  27   16   17 ar
  28   16   25 1
  29   17   18 ar
  30   17   36 1
  31   18   19 ar
  32   18   24 1
  33   19   20 ar
  34   19   37 1
  35   20   38 1
  36   21   39 1
  37   22   23 ar
  38   22   29 ar
  39   23   26 ar
  40   23   40 1
  41   25   41 1
  42   25   42 1
  43   25   43 1
  44   26   27 ar
  45   27   28 ar
  46   27   30 1
  47   28   29 ar
  48   28   44 1
  49   29   45 1
  50   30   46 1
  51   30   47 1

#	End of record

