#	Name: ASD03540455
#	Creating user name:	WinNT
#	Creation time:	15. 06. 2019 20:43

#	Modifying user name:	WinNT
#	Modification time:	15. 06. 2019 20:43

#	Program:	/corina/corina34_cracker 3.40 0067  02.08.2006

@<TRIPOS>MOLECULE
ASD03540455
  55   58    0    0    0
SMALL
NO_CHARGES


@<TRIPOS>ATOM
   1 O1            -0.0162     1.3452     0.0094 O.3     
   2 C2             0.0021    -0.0041     0.0020 C.2     
   3 C3             1.3071    -0.4088    -0.0126 C.2     
   4 C4             2.0903     0.7554    -0.0138 C.2     
   5 C5             1.2408     1.8067    -0.0001 C.2     
   6 C6            -1.1711    -0.8810     0.0089 C.2     
   7 O7            -1.0277    -2.0887     0.0015 O.2     
   8 O8            -2.4107    -0.3490     0.0236 O.3     
   9 C9             1.6423     3.2592     0.0034 C.3     
  10 N10           -1.4582     4.7055    -1.3629 N.am    
  11 C11           -0.5718     4.0352    -0.6073 C.2     
  12 N12            0.7439     4.0163    -0.8717 N.am    
  13 C13            1.2551     4.6829    -1.9296 C.2     
  14 C14            0.3277     5.4365    -2.7935 C.ar    
  15 C15            0.7758     6.1474    -3.8996 C.ar    
  16 C16           -0.1455     6.8429    -4.6816 C.ar    
  17 C17           -1.5059     6.8208    -4.3502 C.ar    
  18 C18           -1.9463     6.1215    -3.2622 C.ar    
  19 C19           -1.0431     5.4226    -2.4713 C.ar    
  20 O20            2.4481     4.6623    -2.1631 O.2     
  21 O21           -0.9796     3.4186     0.3577 O.2     
  22 C22            1.5507     3.8102     1.4278 C.3     
  23 C23            0.3139     7.6040    -5.8605 C.2     
  24 N24           -0.5759     8.2766    -6.6170 N.am    
  25 O25            1.4949     7.6239    -6.1487 O.2     
  26 C26           -0.1200     9.0317    -7.7867 C.3     
  27 C27           -1.3021     9.6866    -8.4538 C.ar    
  28 C28           -1.6925    10.9573    -8.0736 C.ar    
  29 C29           -2.7757    11.5598    -8.6836 C.ar    
  30 C30           -3.4720    10.8886    -9.6783 C.ar    
  31 C31           -3.0782     9.6137   -10.0579 C.ar    
  32 C32           -1.9908     9.0178    -9.4488 C.ar    
  33 O33           -4.5382    11.4790   -10.2796 O.3     
  34 C34           -5.2075    10.7291   -11.2954 C.3     
  35 H35            1.6661    -1.4273    -0.0215 H       
  36 H36            3.1692     0.8026    -0.0239 H       
  37 H37           -3.1539    -0.9677     0.0277 H       
  38 H38            2.6664     3.3540    -0.3577 H       
  39 H39           -2.3997     4.6837    -1.1307 H       
  40 H40            1.8260     6.1615    -4.1507 H       
  41 H41           -2.2138     7.3622    -4.9603 H       
  42 H42           -2.9979     6.1123    -3.0165 H       
  43 H43            2.2192     3.2469     2.0790 H       
  44 H44            1.8411     4.8608     1.4304 H       
  45 H45            0.5266     3.7154     1.7889 H       
  46 H46           -1.5181     8.2606    -6.3871 H       
  47 H47            0.5892     9.7970    -7.4713 H       
  48 H48            0.3650     8.3547    -8.4899 H       
  49 H49           -1.1504    11.4792    -7.2989 H       
  50 H50           -3.0806    12.5522    -8.3861 H       
  51 H51           -3.6186     9.0892   -10.8320 H       
  52 H52           -1.6810     8.0272    -9.7473 H       
  53 H53           -6.0373    11.3143   -11.6917 H       
  54 H54           -4.5074    10.5007   -12.0991 H       
  55 H55           -5.5881     9.8005   -10.8702 H       
@<TRIPOS>BOND
   1    1    2 1
   2    1    5 1
   3    2    3 2
   4    2    6 1
   5    3    4 1
   6    3   35 1
   7    4    5 2
   8    4   36 1
   9    5    9 1
  10    6    7 2
  11    6    8 1
  12    8   37 1
  13    9   12 1
  14    9   22 1
  15    9   38 1
  16   10   11 am
  17   10   19 1
  18   10   39 1
  19   11   12 am
  20   11   21 2
  21   12   13 am
  22   13   14 1
  23   13   20 2
  24   14   15 ar
  25   14   19 ar
  26   15   16 ar
  27   15   40 1
  28   16   17 ar
  29   16   23 1
  30   17   18 ar
  31   17   41 1
  32   18   19 ar
  33   18   42 1
  34   22   43 1
  35   22   44 1
  36   22   45 1
  37   23   24 am
  38   23   25 2
  39   24   26 1
  40   24   46 1
  41   26   27 1
  42   26   47 1
  43   26   48 1
  44   27   28 ar
  45   27   32 ar
  46   28   29 ar
  47   28   49 1
  48   29   30 ar
  49   29   50 1
  50   30   31 ar
  51   30   33 1
  52   31   32 ar
  53   31   51 1
  54   32   52 1
  55   33   34 1
  56   34   53 1
  57   34   54 1
  58   34   55 1

#	End of record

