#	Name: ASD01883530
#	Creating user name:	WinNT
#	Creation time:	15. 06. 2019 19:46

#	Modifying user name:	WinNT
#	Modification time:	15. 06. 2019 19:46

#	Program:	/corina/corina34_cracker 3.40 0067  02.08.2006

@<TRIPOS>MOLECULE
ASD01883530
  47   50    0    0    0
SMALL
NO_CHARGES


@<TRIPOS>ATOM
   1 C1            -0.0171     1.4071     0.0098 C.2     
   2 C2            -0.8596     1.4006    -1.1224 C.2     
   3 C3            -2.0088     0.6940    -1.0984 C.2     
   4 N4            -2.3698    -0.0152     0.0042 N.am    
   5 C5            -1.5940    -0.0346     1.1037 C.2     
   6 C6            -0.3900     0.6768     1.1270 C.2     
   7 O7            -1.9399    -0.6789     2.0820 O.2     
   8 Br8            0.7064     0.6552     2.6676 Br      
   9 N9             1.1651     2.1263     0.0024 N.pl3   
  10 C10            1.1490     3.5919    -0.0998 C.3     
  11 C11            2.0457     4.0147    -1.2677 C.3     
  12 C12            3.4402     3.4131    -1.0786 C.3     
  13 C13            3.3422     1.8858    -1.0731 C.3     
  14 C14            2.4600     1.4393     0.1026 C.3     
  15 C15           -3.6249    -0.7707    -0.0048 C.3     
  16 C16            4.3348     3.8547    -2.2081 C.ar    
  17 C17            5.4822     4.5772    -1.9390 C.ar    
  18 C18            6.3028     4.9823    -2.9750 C.ar    
  19 C19            5.9763     4.6645    -4.2801 C.ar    
  20 C20            4.8294     3.9412    -4.5491 C.ar    
  21 C21            4.0111     3.5324    -3.5128 C.ar    
  22 C22           -3.3640    -2.1871    -0.5213 C.3     
  23 C23           -4.5325    -3.1745    -0.4967 C.3     
  24 C24           -4.0450    -2.5992    -1.8279 C.3     
  25 H25           -0.5857     1.9597    -2.0049 H       
  26 H26           -2.6510     0.6920    -1.9668 H       
  27 H27            0.1299     3.9346    -0.2790 H       
  28 H28            1.5254     4.0269     0.8260 H       
  29 H29            1.6181     3.6549    -2.2035 H       
  30 H30            2.1192     5.1018    -1.2950 H       
  31 H31            3.8572     3.7537    -0.1309 H       
  32 H32            2.9024     1.5460    -2.0107 H       
  33 H33            4.3385     1.4578    -0.9618 H       
  34 H34            2.9456     1.6992     1.0432 H       
  35 H35            2.3051     0.3615     0.0546 H       
  36 H36           -4.0258    -0.8213     1.0075 H       
  37 H37           -4.3438    -0.2732    -0.6558 H       
  38 H38            5.7373     4.8255    -0.9193 H       
  39 H39            7.1988     5.5474    -2.7648 H       
  40 H40            6.6171     4.9816    -5.0896 H       
  41 H41            4.5742     3.6932    -5.5688 H       
  42 H42            3.1150     2.9673    -3.7230 H       
  43 H43           -2.3670    -2.5822    -0.3266 H       
  44 H44           -4.3041    -4.2193    -0.2861 H       
  45 H45           -5.4871    -2.8150    -0.1125 H       
  46 H46           -4.6789    -1.8612    -2.3196 H       
  47 H47           -3.4960    -3.2655    -2.4933 H       
@<TRIPOS>BOND
   1    1    2 1
   2    1    9 1
   3    1    6 2
   4    2    3 2
   5    2   25 1
   6    3    4 1
   7    3   26 1
   8    4    5 am
   9    4   15 1
  10    5    6 1
  11    5    7 2
  12    6    8 1
  13    9   10 1
  14    9   14 1
  15   10   11 1
  16   10   27 1
  17   10   28 1
  18   11   12 1
  19   11   29 1
  20   11   30 1
  21   12   13 1
  22   12   16 1
  23   12   31 1
  24   13   14 1
  25   13   32 1
  26   13   33 1
  27   14   34 1
  28   14   35 1
  29   15   22 1
  30   15   36 1
  31   15   37 1
  32   16   17 ar
  33   16   21 ar
  34   17   18 ar
  35   17   38 1
  36   18   19 ar
  37   18   39 1
  38   19   20 ar
  39   19   40 1
  40   20   21 ar
  41   20   41 1
  42   21   42 1
  43   22   23 1
  44   22   24 1
  45   22   43 1
  46   23   24 1
  47   23   44 1
  48   23   45 1
  49   24   46 1
  50   24   47 1

#	End of record

