#	Name: ASD04882089
#	Creating user name:	WinNT
#	Creation time:	15. 06. 2019 20:54

#	Modifying user name:	WinNT
#	Modification time:	15. 06. 2019 20:54

#	Program:	/corina/corina34_cracker 3.40 0067  02.08.2006

@<TRIPOS>MOLECULE
ASD04882089
  74   78    0    0    0
SMALL
NO_CHARGES


@<TRIPOS>ATOM
   1 C1             2.2173     1.8347    -0.7770 C.ar    
   2 C2             2.2538     0.4570    -0.6912 C.ar    
   3 C3             1.0720    -0.2603    -0.5528 C.ar    
   4 C4            -0.1425     0.4115    -0.5012 C.ar    
   5 C5            -0.1718     1.7898    -0.5877 C.ar    
   6 C6             1.0062     2.5006    -0.7254 C.ar    
   7 C7            -1.4269    -0.3624    -0.3517 C.3     
   8 N8             1.1052    -1.6539    -0.4661 N.3     
   9 C9             0.6871    -2.1088     0.8673 C.3     
  10 C10            2.4394    -2.1708    -0.8013 C.3     
  11 C11            2.4130    -3.7008    -0.7722 C.3     
  12 N12            1.9948    -4.1557     0.5612 N.3     
  13 C13            0.6606    -3.6388     0.8964 C.3     
  14 C14            2.0279    -5.5450     0.6476 C.ar    
  15 C15            1.2436    -6.3122    -0.2056 C.ar    
  16 C16            2.8543    -6.1663     1.5884 C.ar    
  17 C17            2.8870    -7.5448     1.6740 C.ar    
  18 C18            2.0928    -8.3143     0.8185 C.ar    
  19 C19            1.2733    -7.6870    -0.1236 C.ar    
  20 N20            3.6494    -5.3913     2.4440 N.am    
  21 C21            3.9018    -5.8158     3.6980 C.2     
  22 C22            4.6586    -4.9313     4.6550 C.3     
  23 O23            3.5198    -6.9099     4.0563 O.2     
  24 C24            2.1244    -9.7866     0.9063 C.2     
  25 O25            2.8416   -10.3317     1.7231 O.2     
  26 N26            1.3584   -10.5275     0.0812 N.am    
  27 C27            1.3898   -11.9895     0.1683 C.3     
  28 C28            0.4362   -12.5830    -0.8706 C.3     
  29 C29            0.4690   -14.1099    -0.7796 C.3     
  30 N30           -0.4440   -14.6782    -1.7744 N.am    
  31 C31           -0.0596   -15.0283    -3.1468 C.3     
  32 C32           -1.3871   -15.1619    -3.9254 C.3     
  33 C33           -2.3815   -15.5141    -2.7949 C.3     
  34 C34           -1.7402   -14.9512    -1.5457 C.2     
  35 O35           -2.3139   -14.7662    -0.4933 O.2     
  36 C36            4.9133    -5.4701     6.0641 C.3     
  37 C37            6.0658    -5.3725     5.0625 C.3     
  38 H38            3.1359     2.3932    -0.8801 H       
  39 H39            3.1998    -0.0623    -0.7319 H       
  40 H40           -1.1158     2.3128    -0.5477 H       
  41 H41            0.9805     3.5782    -0.7924 H       
  42 H42           -1.6225    -0.5410     0.7057 H       
  43 H43           -2.2485     0.2107    -0.7814 H       
  44 H44           -1.3387    -1.3166    -0.8711 H       
  45 H45            1.3919    -1.7430     1.6139 H       
  46 H46           -0.3086    -1.7236     1.0872 H       
  47 H47            2.7213    -1.8308    -1.7978 H       
  48 H48            3.1642    -1.8057    -0.0736 H       
  49 H49            1.7081    -4.0666    -1.5188 H       
  50 H50            3.4087    -4.0860    -0.9921 H       
  51 H51            0.3787    -3.9788     1.8929 H       
  52 H52           -0.0642    -4.0039     0.1687 H       
  53 H53            0.6092    -5.8295    -0.9342 H       
  54 H54            3.5249    -8.0270     2.3999 H       
  55 H55            0.6591    -8.2804    -0.7847 H       
  56 H56            4.0180    -4.5495     2.1335 H       
  57 H57            4.4767    -3.8616     4.5505 H       
  58 H58            0.7863   -10.0926    -0.5704 H       
  59 H59            2.4027   -12.3433    -0.0242 H       
  60 H60            1.0797   -12.3008     1.1658 H       
  61 H61           -0.5766   -12.2292    -0.6781 H       
  62 H62            0.7464   -12.2717    -1.8681 H       
  63 H63            1.4819   -14.4637    -0.9721 H       
  64 H64            0.1589   -14.4212     0.2179 H       
  65 H65            0.5539   -14.2382    -3.5799 H       
  66 H66            0.4808   -15.9749    -3.1573 H       
  67 H67           -1.6563   -14.2193    -4.4020 H       
  68 H68           -1.3298   -15.9659    -4.6591 H       
  69 H69           -3.3477   -15.0434    -2.9763 H       
  70 H70           -2.4930   -16.5949    -2.7079 H       
  71 H71            4.8994    -4.7550     6.8866 H       
  72 H72            4.5335    -6.4644     6.2990 H       
  73 H73            6.4441    -6.3026     4.6384 H       
  74 H74            6.8100    -4.5931     5.2260 H       
@<TRIPOS>BOND
   1    1    2 ar
   2    1    6 ar
   3    1   38 1
   4    2    3 ar
   5    2   39 1
   6    3    4 ar
   7    3    8 1
   8    4    5 ar
   9    4    7 1
  10    5    6 ar
  11    5   40 1
  12    6   41 1
  13    7   42 1
  14    7   43 1
  15    7   44 1
  16    8    9 1
  17    8   10 1
  18    9   13 1
  19    9   45 1
  20    9   46 1
  21   10   11 1
  22   10   47 1
  23   10   48 1
  24   11   12 1
  25   11   49 1
  26   11   50 1
  27   12   13 1
  28   12   14 1
  29   13   51 1
  30   13   52 1
  31   14   15 ar
  32   14   16 ar
  33   15   19 ar
  34   15   53 1
  35   16   17 ar
  36   16   20 1
  37   17   18 ar
  38   17   54 1
  39   18   19 ar
  40   18   24 1
  41   19   55 1
  42   20   21 am
  43   20   56 1
  44   21   22 1
  45   21   23 2
  46   22   36 1
  47   22   37 1
  48   22   57 1
  49   24   25 2
  50   24   26 am
  51   26   27 1
  52   26   58 1
  53   27   28 1
  54   27   59 1
  55   27   60 1
  56   28   29 1
  57   28   61 1
  58   28   62 1
  59   29   30 1
  60   29   63 1
  61   29   64 1
  62   30   31 1
  63   30   34 am
  64   31   32 1
  65   31   65 1
  66   31   66 1
  67   32   33 1
  68   32   67 1
  69   32   68 1
  70   33   34 1
  71   33   69 1
  72   33   70 1
  73   34   35 2
  74   36   37 1
  75   36   71 1
  76   36   72 1
  77   37   73 1
  78   37   74 1

#	End of record

