#	Name: ASD02398037
#	Creating user name:	WinNT
#	Creation time:	15. 06. 2019 20:20

#	Modifying user name:	WinNT
#	Modification time:	15. 06. 2019 20:20

#	Program:	/corina/corina34_cracker 3.40 0067  02.08.2006

@<TRIPOS>MOLECULE
ASD02398037
  60   63    0    0    0
SMALL
NO_CHARGES


@<TRIPOS>ATOM
   1 C1            -0.2359     1.3493    -0.0524 C.ar    
   2 C2             0.0625    -0.0149    -0.1258 C.ar    
   3 C3            -0.9680    -0.9503    -0.0744 C.ar    
   4 C4            -2.2764    -0.5277     0.0486 C.ar    
   5 C5            -2.5685     0.8226     0.1210 C.ar    
   6 C6            -1.5530     1.7593     0.0761 C.ar    
   7 C7            -3.3906    -1.5409     0.1037 C.3     
   8 C8            -3.5749    -2.0081     1.5245 C.2     
   9 O9            -2.8139    -1.6364     2.3862 O.2     
  10 O10           -4.5846    -2.8371     1.8328 O.3     
  11 C11            1.4700    -0.4636    -0.2584 C.ar    
  12 C12            2.3651    -0.2790     0.7940 C.ar    
  13 C13            1.9010    -1.0764    -1.4333 C.ar    
  14 C14            3.2119    -1.4923    -1.5509 C.ar    
  15 C15            4.0970    -1.3019    -0.5054 C.ar    
  16 C16            3.6733    -0.6988     0.6654 C.ar    
  17 C17            1.9052     0.3783     2.0698 C.3     
  18 N18            2.9798     0.3204     3.0638 N.am    
  19 C19            3.9925     1.1917     3.1682 C.2     
  20 O20            4.8432     0.9159     4.1631 O.3     
  21 C21            4.4032    -0.2860     4.8593 C.3     
  22 C22            3.1195    -0.6999     4.1141 C.3     
  23 O23            4.1262     2.1449     2.4266 O.2     
  24 C24            3.2846    -2.0863     3.4884 C.3     
  25 C25            5.4488    -1.3667     4.7599 C.ar    
  26 C26            5.6068    -2.2726     5.7920 C.ar    
  27 C27            6.2461    -1.4555     3.6341 C.ar    
  28 C28            7.2053    -2.4468     3.5430 C.ar    
  29 C29            7.3674    -3.3490     4.5777 C.ar    
  30 C30            6.5660    -3.2639     5.7008 C.ar    
  31 O31            0.7626     2.2691    -0.1014 O.3     
  32 C32           -4.7705    -3.1558     3.2371 C.3     
  33 C33            5.5268    -1.7586    -0.6397 C.3     
  34 F34            5.7146    -2.3391    -1.8987 F       
  35 F35            6.3822    -0.6605    -0.5002 F       
  36 F36            5.8109    -2.7004     0.3551 F       
  37 H37           -0.7437    -2.0052    -0.1309 H       
  38 H38           -3.5944     1.1462     0.2171 H       
  39 H39           -1.7872     2.8121     0.1331 H       
  40 H40           -4.3145    -1.0846    -0.2515 H       
  41 H41           -3.1392    -2.3922    -0.5290 H       
  42 H42            1.2105    -1.2259    -2.2502 H       
  43 H43            3.5469    -1.9677    -2.4610 H       
  44 H44            4.3687    -0.5525     1.4786 H       
  45 H45            1.6500     1.4191     1.8708 H       
  46 H46            1.0282    -0.1442     2.4520 H       
  47 H47            4.1805    -0.0633     5.9028 H       
  48 H48            2.2631    -0.6824     4.7881 H       
  49 H49            3.5182    -2.8113     4.2680 H       
  50 H50            2.3580    -2.3731     2.9911 H       
  51 H51            4.0953    -2.0620     2.7601 H       
  52 H52            4.9811    -2.2057     6.6697 H       
  53 H53            6.1195    -0.7507     2.8257 H       
  54 H54            7.8277    -2.5167     2.6631 H       
  55 H55            8.1165    -4.1237     4.5063 H       
  56 H56            6.6926    -3.9687     6.5093 H       
  57 H57            0.9795     2.5669    -0.9954 H       
  58 H58           -3.8429    -3.5581     3.6443 H       
  59 H59           -5.0446    -2.2522     3.7816 H       
  60 H60           -5.5637    -3.8964     3.3397 H       
@<TRIPOS>BOND
   1    1    2 ar
   2    1   31 1
   3    1    6 ar
   4    2    3 ar
   5    2   11 1
   6    3    4 ar
   7    3   37 1
   8    4    5 ar
   9    4    7 1
  10    5    6 ar
  11    5   38 1
  12    6   39 1
  13    7    8 1
  14    7   40 1
  15    7   41 1
  16    8    9 2
  17    8   10 1
  18   10   32 1
  19   11   12 ar
  20   11   13 ar
  21   12   17 1
  22   12   16 ar
  23   13   14 ar
  24   13   42 1
  25   14   15 ar
  26   14   43 1
  27   15   16 ar
  28   15   33 1
  29   16   44 1
  30   17   18 1
  31   17   45 1
  32   17   46 1
  33   18   19 am
  34   18   22 1
  35   19   20 1
  36   19   23 2
  37   20   21 1
  38   21   22 1
  39   21   25 1
  40   21   47 1
  41   22   24 1
  42   22   48 1
  43   24   49 1
  44   24   50 1
  45   24   51 1
  46   25   26 ar
  47   25   27 ar
  48   26   30 ar
  49   26   52 1
  50   27   28 ar
  51   27   53 1
  52   28   29 ar
  53   28   54 1
  54   29   30 ar
  55   29   55 1
  56   30   56 1
  57   31   57 1
  58   32   58 1
  59   32   59 1
  60   32   60 1
  61   33   34 1
  62   33   35 1
  63   33   36 1

#	End of record

