#	Name: ASD03910089
#	Creating user name:	WinNT
#	Creation time:	15. 06. 2019 20:47

#	Modifying user name:	WinNT
#	Modification time:	15. 06. 2019 20:47

#	Program:	/corina/corina34_cracker 3.40 0067  02.08.2006

@<TRIPOS>MOLECULE
ASD03910089
  39   40    0    0    0
SMALL
NO_CHARGES


@<TRIPOS>ATOM
   1 C1            -0.0165     1.3625     0.0095 C.ar    
   2 C2             0.0021    -0.0041     0.0020 C.ar    
   3 C3             1.2057    -0.7030    -0.0128 C.ar    
   4 C4             2.3990    -0.0471    -0.0206 C.ar    
   5 C5             2.4229     1.3579    -0.0137 C.ar    
   6 C6             3.6365     2.0669    -0.0209 C.ar    
   7 C7             3.6212     3.4278    -0.0135 C.ar    
   8 C8             2.4184     4.1316     0.0012 C.ar    
   9 C9             1.2242     3.4781     0.0090 C.ar    
  10 C10            1.2003     2.0741     0.0017 C.ar    
  11 P11           -6.7852     8.5031     0.8425 P.3     
  12 O12           -5.8666     9.3626     1.6221 O.2     
  13 O13           -8.2904     8.7015     1.3786 O.3     
  14 O14           -2.3766     0.5037     1.8063 O.3     
  15 O15           -6.7115     8.9112    -0.7132 O.3     
  16 O16           -6.3533     6.9617     1.0141 O.3     
  17 P17           -5.9281     6.0529     2.2733 P.3     
  18 O18           -5.0654     6.8409     3.1816 O.2     
  19 O19           -7.2485     5.5795     3.0636 O.3     
  20 O20           -5.1211     4.7601     1.7539 O.3     
  21 P21           -4.1879     3.6616     2.4712 P.3     
  22 O22           -3.3280     4.3254     3.4764 O.2     
  23 O23           -5.1138     2.5634     3.1984 O.3     
  24 O24           -3.2643     2.9393     1.3679 O.3     
  25 P25           -1.9496     2.0129     1.4430 P.3     
  26 O26           -1.0387     2.5329     2.4871 O.2     
  27 O27           -1.1990     2.0302     0.0188 O.3     
  28 H28           -0.9302    -0.5492     0.0080 H       
  29 H29            1.1929    -1.7830    -0.0178 H       
  30 H30            3.3238    -0.6047    -0.0317 H       
  31 H31            4.5761     1.5346    -0.0319 H       
  32 H32            4.5550     3.9704    -0.0187 H       
  33 H33            2.4340     5.2115     0.0068 H       
  34 H34            0.2999     4.0366     0.0210 H       
  35 H35           -8.9477     8.1674     0.9120 H       
  36 H36           -2.9748     0.0986     1.1636 H       
  37 H37           -6.9592     9.8288    -0.8913 H       
  38 H38           -7.8611     5.0567     2.5283 H       
  39 H39           -5.7047     2.0879     2.5986 H       
@<TRIPOS>BOND
   1    1    2 ar
   2    1   10 ar
   3    1   27 1
   4    2    3 ar
   5    2   28 1
   6    3    4 ar
   7    3   29 1
   8    4    5 ar
   9    4   30 1
  10    5    6 ar
  11    5   10 ar
  12    6    7 ar
  13    6   31 1
  14    7    8 ar
  15    7   32 1
  16    8    9 ar
  17    8   33 1
  18    9   10 ar
  19    9   34 1
  20   11   12 2
  21   11   13 1
  22   11   15 1
  23   11   16 1
  24   13   35 1
  25   14   25 1
  26   14   36 1
  27   15   37 1
  28   16   17 1
  29   17   18 2
  30   17   19 1
  31   17   20 1
  32   19   38 1
  33   20   21 1
  34   21   22 2
  35   21   23 1
  36   21   24 1
  37   23   39 1
  38   24   25 1
  39   25   26 2
  40   25   27 1

#	End of record

