#	Name: ASD02508002
#	Creating user name:	WinNT
#	Creation time:	15. 06. 2019 20:23

#	Modifying user name:	WinNT
#	Modification time:	15. 06. 2019 20:23

#	Program:	/corina/corina34_cracker 3.40 0067  02.08.2006

@<TRIPOS>MOLECULE
ASD02508002
  48   51    0    0    0
SMALL
NO_CHARGES


@<TRIPOS>ATOM
   1 C1            -0.0187     1.5295     0.0105 C.3     
   2 C2             0.0021    -0.0041     0.0020 C.3     
   3 N3             1.3673     2.0180    -0.0002 N.am    
   4 C4             2.2693     1.5664    -1.0690 C.3     
   5 C5             2.2901     0.0329    -1.0774 C.3     
   6 N6             0.9040    -0.4556    -1.0668 N.am    
   7 S7             1.9030     3.0590     1.1710 S.o2    
   8 C8             2.5403     2.0783     2.4888 C.ar    
   9 C9             3.8746     1.7101     2.4957 C.ar    
  10 F10            4.6892     2.1030     1.4921 F       
  11 O11            3.0115     3.7527     0.6147 O.2     
  12 O12            0.7511     3.7165     1.6808 O.2     
  13 C13            1.7082     1.6802     3.5209 C.ar    
  14 C14            2.2101     0.9094     4.5560 C.ar    
  15 C15            3.5412     0.5376     4.5589 C.ar    
  16 C16            4.3742     0.9393     3.5318 C.ar    
  17 F17            0.4071     2.0439     3.5186 F       
  18 S18            0.3683    -1.4967    -2.2380 S.o2    
  19 C19            0.6681    -3.1332    -1.6578 C.ar    
  20 O20           -1.0432    -1.3437    -2.2957 O.2     
  21 C21           -0.2975    -3.7912    -0.9200 C.ar    
  22 O22            1.2172    -1.3075    -3.3618 O.2     
  23 C23           -0.0640    -5.0792    -0.4615 C.ar    
  24 C24            1.1420    -5.7071    -0.7492 C.ar    
  25 C25            2.1072    -5.0408    -1.4896 C.ar    
  26 C26            1.8667    -3.7589    -1.9464 C.ar    
  27 O27           -1.0212    -5.7117     0.2708 O.3     
  28 C28           -0.9031    -7.1332     0.3936 C.3     
  29 C29            0.5547    -7.4666     0.7383 C.3     
  30 O30            1.3887    -6.9736    -0.3159 O.3     
  31 H31           -0.5415     1.8931    -0.8742 H       
  32 H32           -0.5245     1.8835     0.9087 H       
  33 H33            0.3620    -0.3703     0.9635 H       
  34 H34           -1.0032    -0.3825    -0.1834 H       
  35 H35            1.9094     1.9327    -2.0305 H       
  36 H36            3.2745     1.9449    -0.8836 H       
  37 H37            2.7959    -0.3212    -1.9757 H       
  38 H38            2.8129    -0.3307    -0.1928 H       
  39 H39            1.5612     0.5989     5.3616 H       
  40 H40            3.9319    -0.0633     5.3668 H       
  41 H41            5.4142     0.6481     3.5351 H       
  42 H42           -1.2348    -3.3018    -0.6998 H       
  43 H43            3.0461    -5.5257    -1.7125 H       
  44 H44            2.6196    -3.2419    -2.5228 H       
  45 H45           -1.5593    -7.4893     1.1878 H       
  46 H46           -1.1755    -7.6075    -0.5492 H       
  47 H47            0.8288    -6.9879     1.6784 H       
  48 H48            0.6738    -8.5465     0.8267 H       
@<TRIPOS>BOND
   1    1    2 1
   2    1    3 1
   3    1   31 1
   4    1   32 1
   5    2    6 1
   6    2   33 1
   7    2   34 1
   8    3    4 1
   9    3    7 am
  10    4    5 1
  11    4   35 1
  12    4   36 1
  13    5    6 1
  14    5   37 1
  15    5   38 1
  16    6   18 am
  17    7    8 1
  18    7   12 2
  19    7   11 2
  20    8    9 ar
  21    8   13 ar
  22    9   10 1
  23    9   16 ar
  24   13   14 ar
  25   13   17 1
  26   14   15 ar
  27   14   39 1
  28   15   16 ar
  29   15   40 1
  30   16   41 1
  31   18   19 1
  32   18   20 2
  33   18   22 2
  34   19   21 ar
  35   19   26 ar
  36   21   23 ar
  37   21   42 1
  38   23   24 ar
  39   23   27 1
  40   24   25 ar
  41   24   30 1
  42   25   26 ar
  43   25   43 1
  44   26   44 1
  45   27   28 1
  46   28   29 1
  47   28   45 1
  48   28   46 1
  49   29   30 1
  50   29   47 1
  51   29   48 1

#	End of record

