#	Name: ASD07932019
#	Creating user name:	WinNT
#	Creation time:	15. 06. 2019 21:14

#	Modifying user name:	WinNT
#	Modification time:	15. 06. 2019 21:14

#	Program:	/corina/corina34_cracker 3.40 0067  02.08.2006

@<TRIPOS>MOLECULE
ASD07932019
  18   18    0    0    0
SMALL
NO_CHARGES


@<TRIPOS>ATOM
   1 C1            -0.0168     1.3867     0.0097 C.ar    
   2 C2             0.0021    -0.0041     0.0020 C.ar    
   3 C3            -1.2081    -0.6806     0.0099 C.ar    
   4 C4            -2.3971     0.0546     0.0251 C.ar    
   5 N5            -2.3713     1.3834     0.0320 N.ar    
   6 C6            -1.2412     2.0517     0.0307 C.ar    
   7 C7            -3.6935    -0.6516     0.0332 C.2     
   8 O8            -3.7237    -1.8661     0.0265 O.2     
   9 O9            -4.8432     0.0507     0.0479 O.3     
  10 O10            1.1448     2.0884     0.0023 O.3     
  11 F11           -1.2378    -2.0313     0.0025 F       
  12 C12            1.0418     3.5137     0.0110 C.3     
  13 H13            0.4946     3.8438    -0.8721 H       
  14 H14            0.5116     3.8342     0.9078 H       
  15 H15            2.0405     3.9502     0.0038 H       
  16 H16            0.9373    -0.5442    -0.0101 H       
  17 H17           -1.2609     3.1315     0.0365 H       
  18 H18           -5.6670    -0.4557     0.0527 H       
@<TRIPOS>BOND
   1    1    2 ar
   2    1   10 1
   3    1    6 ar
   4    2    3 ar
   5    2   16 1
   6    3    4 ar
   7    3   11 1
   8    4    5 ar
   9    4    7 1
  10    5    6 ar
  11    6   17 1
  12    7    8 2
  13    7    9 1
  14    9   18 1
  15   10   12 1
  16   12   13 1
  17   12   14 1
  18   12   15 1

#	End of record

