#	Name: ASD03731178
#	Creating user name:	WinNT
#	Creation time:	15. 06. 2019 20:45

#	Modifying user name:	WinNT
#	Modification time:	15. 06. 2019 20:45

#	Program:	/corina/corina34_cracker 3.40 0067  02.08.2006

@<TRIPOS>MOLECULE
ASD03731178
  66   71    0    0    0
SMALL
NO_CHARGES


@<TRIPOS>ATOM
   1 N1            -0.0171     1.3440    -0.0039 N.am    
   2 C2             0.0018    -0.0036    -0.0034 C.2     
   3 O3             1.0631    -0.5968    -0.0144 O.2     
   4 N4            -1.1558    -0.6938     0.0094 N.am    
   5 C5            -1.1402    -2.0903    -0.1041 C.ar    
   6 C6            -2.0785    -2.8522     0.5784 C.ar    
   7 C7            -2.0636    -4.2337     0.4672 C.ar    
   8 C8            -1.1090    -4.8561    -0.3283 C.ar    
   9 C9            -0.1701    -4.0924    -1.0116 C.ar    
  10 C10           -0.1899    -2.7107    -0.9033 C.ar    
  11 O11            0.7647    -4.7003    -1.7900 O.3     
  12 C12            1.6984    -3.8537    -2.4633 C.3     
  13 O13           -1.0932    -6.2132    -0.4378 O.3     
  14 C14           -1.8717    -6.7883    -1.4891 C.3     
  15 O15           -2.9824    -4.9800     1.1367 O.3     
  16 C16           -3.9336    -4.2740     1.9360 C.3     
  17 C17            1.2412     2.0942    -0.0177 C.3     
  18 C18            0.9406     3.5943    -0.0153 C.3     
  19 O19            7.6097     2.0683    -2.2255 O.3     
  20 C20            8.9822     2.4192    -2.4826 C.3     
  21 O21            8.9014     3.7602    -3.0006 O.3     
  22 C22            7.7641     4.2919    -2.4634 C.ar    
  23 C23            6.9698     3.2509    -1.9879 C.ar    
  24 C24            7.3357     5.6013    -2.3386 C.ar    
  25 C25            6.1122     5.8891    -1.7413 C.ar    
  26 C26            5.3238     4.8403    -1.2777 C.ar    
  27 C27            5.7508     3.5340    -1.3950 C.ar    
  28 O28            5.5185     7.0944    -1.5068 O.3     
  29 C29            4.0708     5.4600    -0.7193 C.3     
  30 C30            4.1123     6.8929    -1.2675 C.3     
  31 N31            2.1989     4.3445    -0.0291 N.am    
  32 C32            2.8330     4.7297    -1.1546 C.2     
  33 C33            4.0407     5.4351     0.7801 C.ar    
  34 C34            4.8774     5.9274     1.7568 C.ar    
  35 C35            4.5693     5.7396     3.0924 C.ar    
  36 C36            3.4196     5.0559     3.4440 C.ar    
  37 C37            2.5790     4.5600     2.4695 C.ar    
  38 C38            2.8809     4.7447     1.1225 C.ar    
  39 O39            2.4740     4.5265    -2.2951 O.2     
  40 H40           -0.8638     1.8172     0.0009 H       
  41 H41           -1.9998    -0.2237     0.0970 H       
  42 H42           -2.8203    -2.3683     1.1966 H       
  43 H43            0.5368    -2.1168    -1.4377 H       
  44 H44            1.1613    -3.1755    -3.1264 H       
  45 H45            2.2596    -3.2754    -1.7292 H       
  46 H46            2.3866    -4.4642    -3.0479 H       
  47 H47           -1.7710    -7.8734    -1.4640 H       
  48 H48           -2.9190    -6.5174    -1.3556 H       
  49 H49           -1.5189    -6.4129    -2.4497 H       
  50 H50           -4.6062    -4.9861     2.4141 H       
  51 H51           -3.4104    -3.6989     2.7001 H       
  52 H52           -4.5095    -3.5984     1.3036 H       
  53 H53            1.8259     1.8393     0.8662 H       
  54 H54            1.8069     1.8384    -0.9137 H       
  55 H55            0.3560     3.8492    -0.8992 H       
  56 H56            0.3750     3.8501     0.8807 H       
  57 H57            9.5619     2.3995    -1.5597 H       
  58 H58            9.4168     1.7481    -3.2234 H       
  59 H59            7.9550     6.4057    -2.7073 H       
  60 H60            5.1328     2.7299    -1.0239 H       
  61 H61            3.7401     7.6014    -0.5275 H       
  62 H62            3.5468     6.9686    -2.1962 H       
  63 H63            5.7747     6.4609     1.4799 H       
  64 H64            5.2248     6.1264     3.8586 H       
  65 H65            3.1792     4.9092     4.4867 H       
  66 H66            1.6833     4.0267     2.7519 H       
@<TRIPOS>BOND
   1    1    2 am
   2    1   17 1
   3    1   40 1
   4    2    3 2
   5    2    4 am
   6    4    5 1
   7    4   41 1
   8    5    6 ar
   9    5   10 ar
  10    6    7 ar
  11    6   42 1
  12    7    8 ar
  13    7   15 1
  14    8    9 ar
  15    8   13 1
  16    9   10 ar
  17    9   11 1
  18   10   43 1
  19   11   12 1
  20   12   44 1
  21   12   45 1
  22   12   46 1
  23   13   14 1
  24   14   47 1
  25   14   48 1
  26   14   49 1
  27   15   16 1
  28   16   50 1
  29   16   51 1
  30   16   52 1
  31   17   18 1
  32   17   53 1
  33   17   54 1
  34   18   31 1
  35   18   55 1
  36   18   56 1
  37   19   20 1
  38   19   23 1
  39   20   21 1
  40   20   57 1
  41   20   58 1
  42   21   22 1
  43   22   23 ar
  44   22   24 ar
  45   23   27 ar
  46   24   25 ar
  47   24   59 1
  48   25   26 ar
  49   25   28 1
  50   26   27 ar
  51   26   29 1
  52   27   60 1
  53   28   30 1
  54   29   30 1
  55   29   32 1
  56   29   33 1
  57   30   61 1
  58   30   62 1
  59   31   32 am
  60   31   38 1
  61   32   39 2
  62   33   34 ar
  63   33   38 ar
  64   34   35 ar
  65   34   63 1
  66   35   36 ar
  67   35   64 1
  68   36   37 ar
  69   36   65 1
  70   37   38 ar
  71   37   66 1

#	End of record

