#	Name: ASD07730029
#	Creating user name:	WinNT
#	Creation time:	15. 06. 2019 21:11

#	Modifying user name:	WinNT
#	Modification time:	15. 06. 2019 21:11

#	Program:	/corina/corina34_cracker 3.40 0067  02.08.2006

@<TRIPOS>MOLECULE
ASD07730029
  39   42    0    0    0
SMALL
NO_CHARGES


@<TRIPOS>ATOM
   1 C1             0.2331     1.3014    -0.4392 C.ar    
   2 C2             0.2226    -0.0626    -0.2189 C.ar    
   3 C3             1.1224    -0.6285     0.6659 C.ar    
   4 C4             1.1500     2.1045     0.2297 C.ar    
   5 C5             2.0519     1.5321     1.1168 C.ar    
   6 C6             2.0350     0.1677     1.3328 C.ar    
   7 C7             1.2703     7.7042    -0.2723 C.ar    
   8 C8             1.1959     6.3446    -0.1865 C.ar    
   9 C9             2.4929     8.3614    -0.1682 C.ar    
  10 C10            3.6500     7.6664     0.0222 C.ar    
  11 C11            5.8976     3.4559     0.5930 C.ar    
  12 C12            5.8592     2.0656     0.6857 C.ar    
  13 C13            7.1238     4.1231     0.6909 C.ar    
  14 C14            7.0273     1.3557     0.8732 C.ar    
  15 C15            8.2889     3.3964     0.8792 C.ar    
  16 C16            8.2384     2.0186     0.9701 C.ar    
  17 N17            1.1642     3.4853     0.0092 N.pl3   
  18 O18            7.1720     5.4770     0.6014 O.3     
  19 Cl19          -0.8921     2.0105    -1.5549 Cl      
  20 N20            3.4981     3.5566     0.2913 N.ar    
  21 C21            4.6475     4.2228     0.3857 C.ar    
  22 N22            4.7187     5.5391     0.3021 N.ar    
  23 C23            3.6103     6.2678     0.1149 C.ar    
  24 C24            2.3645     5.6011     0.0087 C.ar    
  25 C25            2.3480     4.1872     0.1058 C.ar    
  26 H26           -0.4892    -0.6874    -0.7380 H       
  27 H27            1.1119    -1.6949     0.8367 H       
  28 H28            2.7656     2.1531     1.6377 H       
  29 H29            2.7359    -0.2776     2.0233 H       
  30 H30            0.3686     8.2781    -0.4275 H       
  31 H31            0.2414     5.8459    -0.2684 H       
  32 H32            2.5252     9.4386    -0.2394 H       
  33 H33            4.5916     8.1896     0.1004 H       
  34 H34            4.9160     1.5448     0.6113 H       
  35 H35            6.9964     0.2785     0.9450 H       
  36 H36            9.2372     3.9076     0.9549 H       
  37 H37            9.1485     1.4561     1.1176 H       
  38 H38            0.3417     3.9497    -0.2117 H       
  39 H39            7.0826     5.9307     1.4506 H       
@<TRIPOS>BOND
   1    1    2 ar
   2    1    4 ar
   3    1   19 1
   4    2    3 ar
   5    2   26 1
   6    3    6 ar
   7    3   27 1
   8    4    5 ar
   9    4   17 1
  10    5    6 ar
  11    5   28 1
  12    6   29 1
  13    7    8 ar
  14    7    9 ar
  15    7   30 1
  16    8   24 ar
  17    8   31 1
  18    9   10 ar
  19    9   32 1
  20   10   23 ar
  21   10   33 1
  22   11   12 ar
  23   11   13 ar
  24   11   21 1
  25   12   14 ar
  26   12   34 1
  27   13   15 ar
  28   13   18 1
  29   14   16 ar
  30   14   35 1
  31   15   16 ar
  32   15   36 1
  33   16   37 1
  34   17   25 1
  35   17   38 1
  36   18   39 1
  37   20   21 ar
  38   20   25 ar
  39   21   22 ar
  40   22   23 ar
  41   23   24 ar
  42   24   25 ar

#	End of record

