#	Name: ASD01912250
#	Creating user name:	WinNT
#	Creation time:	15. 06. 2019 19:59

#	Modifying user name:	WinNT
#	Modification time:	15. 06. 2019 19:59

#	Program:	/corina/corina34_cracker 3.40 0067  02.08.2006

@<TRIPOS>MOLECULE
ASD01912250
  44   46    0    0    0
SMALL
NO_CHARGES


@<TRIPOS>ATOM
   1 C1            -0.3090     1.2055     0.2189 C.ar    
   2 C2            -0.3658    -0.1912     0.2089 C.ar    
   3 C3             0.8132    -0.9113     0.2675 C.ar    
   4 C4             2.0132    -0.2156     0.3343 C.ar    
   5 C5             1.9978     1.1673     0.3404 C.ar    
   6 N6             0.8623     1.8322     0.2839 N.ar    
   7 C7             3.2989     1.9242     0.4129 C.3     
   8 C8            -1.5200     1.9669     0.1528 C.1     
   9 C9            -2.5128     2.5910     0.0986 C.1     
  10 C10           -3.7239     3.3524     0.0325 C.2     
  11 N11           -3.6305     7.3286     0.9691 N.3     
  12 C12           -4.8821     6.5695     1.0828 C.3     
  13 C13           -4.9399     5.5137    -0.0271 C.3     
  14 C14           -3.6750     4.6838     0.0418 C.2     
  15 C15           -2.3529     5.4178     0.1220 C.3     
  16 C16           -2.4595     6.4797     1.2224 C.3     
  17 C17           -3.6384     8.4383     1.8198 C.ar    
  18 C18           -3.6121     9.7216     1.2892 C.ar    
  19 C19           -3.6199    10.8161     2.1313 C.ar    
  20 C20           -3.6539    10.6349     3.5038 C.ar    
  21 C21           -3.6797     9.3566     4.0349 C.ar    
  22 C22           -3.6782     8.2589     3.1962 C.ar    
  23 N23           -3.5752     9.9160    -0.1775 N.pl3   
  24 O24           -3.6510    11.0380    -0.6453 O.2     
  25 O25           -3.4692     8.9539    -0.9169 O.2     
  26 F26           -3.6615    11.7070     4.3258 F       
  27 H27           -1.3168    -0.7005     0.1565 H       
  28 H28            0.8010    -1.9912     0.2617 H       
  29 H29            2.9505    -0.7499     0.3814 H       
  30 H30            3.6667     2.1119    -0.5959 H       
  31 H31            3.1389     2.8737     0.9238 H       
  32 H32            4.0321     1.3346     0.9631 H       
  33 H33           -4.6768     2.8474    -0.0248 H       
  34 H34           -4.9221     6.0778     2.0548 H       
  35 H35           -5.7292     7.2482     0.9833 H       
  36 H36           -5.8088     4.8723     0.1205 H       
  37 H37           -5.0052     6.0043    -0.9982 H       
  38 H38           -1.5563     4.7147     0.3656 H       
  39 H39           -2.1406     5.8982    -0.8331 H       
  40 H40           -1.5589     7.0936     1.2237 H       
  41 H41           -2.5677     5.9905     2.1905 H       
  42 H42           -3.5991    11.8142     1.7192 H       
  43 H43           -3.7058     9.2176     5.1056 H       
  44 H44           -3.7032     7.2620     3.6108 H       
@<TRIPOS>BOND
   1    1    2 ar
   2    1    6 ar
   3    1    8 1
   4    2    3 ar
   5    2   27 1
   6    3    4 ar
   7    3   28 1
   8    4    5 ar
   9    4   29 1
  10    5    6 ar
  11    5    7 1
  12    7   30 1
  13    7   31 1
  14    7   32 1
  15    8    9 3
  16    9   10 1
  17   10   14 2
  18   10   33 1
  19   11   12 1
  20   11   16 1
  21   11   17 1
  22   12   13 1
  23   12   34 1
  24   12   35 1
  25   13   14 1
  26   13   36 1
  27   13   37 1
  28   14   15 1
  29   15   16 1
  30   15   38 1
  31   15   39 1
  32   16   40 1
  33   16   41 1
  34   17   18 ar
  35   17   22 ar
  36   18   19 ar
  37   18   23 1
  38   19   20 ar
  39   19   42 1
  40   20   21 ar
  41   20   26 1
  42   21   22 ar
  43   21   43 1
  44   22   44 1
  45   23   24 2
  46   23   25 2

#	End of record

