#	Name: ASD01914236
#	Creating user name:	WinNT
#	Creation time:	15. 06. 2019 20:03

#	Modifying user name:	WinNT
#	Modification time:	15. 06. 2019 20:03

#	Program:	/corina/corina34_cracker 3.40 0067  02.08.2006

@<TRIPOS>MOLECULE
ASD01914236
  32   34    0    0    0
SMALL
NO_CHARGES


@<TRIPOS>ATOM
   1 C1            -0.0170     1.4050     0.0098 C.2     
   2 C2             0.0021    -0.0041     0.0020 C.2     
   3 C3             1.1962    -0.6550    -0.0129 C.2     
   4 C4             2.3923     0.0843    -0.0203 C.2     
   5 C5             2.3577     1.4352    -0.0123 C.2     
   6 N6             1.1641     2.0995     0.0022 N.pl3   
   7 N7            -1.0099     2.2838     0.0293 N.2     
   8 C8            -0.5021     3.5183     0.0288 C.2     
   9 C9             0.8462     3.4301     0.0129 C.2     
  10 C10           -1.2995     4.7970     0.0473 C.3     
  11 C11           -2.2888     4.7981    -1.1198 C.3     
  12 C12           -3.0676     6.0471    -1.1018 C.1     
  13 C13           -3.6887     7.0432    -1.0873 C.1     
  14 S14           -5.3992    10.5270    -0.4932 S.3     
  15 C15           -5.9950     9.6647    -1.8431 C.2     
  16 N16           -5.3835     8.5384    -1.9658 N.2     
  17 C17           -4.4463     8.2582    -1.0697 C.2     
  18 C18           -4.2703     9.2216    -0.1395 C.2     
  19 C19           -7.0849    10.1543    -2.7616 C.3     
  20 F20           -8.3275     9.7306    -2.2781 F       
  21 F21            3.5806    -0.5583    -0.0351 F       
  22 H22           -0.9227    -0.5618     0.0082 H       
  23 H23            1.2256    -1.7346    -0.0186 H       
  24 H24            3.2816     1.9944    -0.0178 H       
  25 H25            1.5426     4.2556     0.0108 H       
  26 H26           -1.8464     4.8706     0.9873 H       
  27 H27           -0.6244     5.6475    -0.0478 H       
  28 H28           -1.7418     4.7245    -2.0598 H       
  29 H29           -2.9638     3.9476    -1.0248 H       
  30 H30           -3.5625     9.1965     0.6759 H       
  31 H31           -7.0632    11.2433    -2.8029 H       
  32 H32           -6.9267     9.7495    -3.7612 H       
@<TRIPOS>BOND
   1    1    2 1
   2    1    6 1
   3    1    7 2
   4    2    3 2
   5    2   22 1
   6    3    4 1
   7    3   23 1
   8    4    5 2
   9    4   21 1
  10    5    6 1
  11    5   24 1
  12    6    9 1
  13    7    8 1
  14    8    9 2
  15    8   10 1
  16    9   25 1
  17   10   11 1
  18   10   26 1
  19   10   27 1
  20   11   12 1
  21   11   28 1
  22   11   29 1
  23   12   13 3
  24   13   17 1
  25   14   15 1
  26   14   18 1
  27   15   16 2
  28   15   19 1
  29   16   17 1
  30   17   18 2
  31   18   30 1
  32   19   20 1
  33   19   31 1
  34   19   32 1

#	End of record

