#	Name: ASD02039445
#	Creating user name:	WinNT
#	Creation time:	15. 06. 2019 20:18

#	Modifying user name:	WinNT
#	Modification time:	15. 06. 2019 20:18

#	Program:	/corina/corina34_cracker 3.40 0067  02.08.2006

@<TRIPOS>MOLECULE
ASD02039445
  58   62    0    0    0
SMALL
NO_CHARGES


@<TRIPOS>ATOM
   1 C1             0.0463     1.1601     0.0252 C.ar    
   2 C2             0.2686    -0.2035     0.0924 C.ar    
   3 C3             1.2136     2.1132     0.0348 C.3     
   4 N4             1.7354     2.2600    -1.3262 N.am    
   5 C5             1.3374     3.2948    -2.0925 C.2     
   6 C6             0.2937     4.2135    -1.6055 C.2     
   7 C7            -0.2769     5.2323    -2.3108 C.2     
   8 N8            -0.2796     4.1966    -0.3751 N.2     
   9 C9            -1.1584     5.1546    -0.3070 C.2     
  10 N10           -1.1824     5.8178    -1.4923 N.pl3   
  11 O11            1.8400     3.4703    -3.1861 O.2     
  12 C12           -2.0346     6.9621    -1.8248 C.3     
  13 C13            2.6897     1.2819    -1.8543 C.3     
  14 C14           -0.7970    -1.0849     0.0837 C.ar    
  15 C15           -2.3204     0.7684    -0.0710 C.ar    
  16 C16           -1.2416     1.6500    -0.0564 C.ar    
  17 C17           -3.7063     1.2891    -0.1585 C.ar    
  18 C18           -4.1220     2.3096     0.7121 C.ar    
  19 C19           -2.0918    -0.6066     0.0072 C.ar    
  20 C20           -4.5744     0.7691    -1.0999 C.ar    
  21 C21           -5.8858     1.2642    -1.1808 C.ar    
  22 C22           -6.2939     2.2908    -0.2922 C.ar    
  23 C23           -5.3861     2.8029     0.6508 C.ar    
  24 N24           -6.7485     0.7815    -2.0814 N.ar    
  25 C25           -7.9747     1.2384    -2.1640 C.ar    
  26 C26           -8.4392     2.2454    -1.3216 C.ar    
  27 C27           -7.6092     2.7826    -0.3783 C.ar    
  28 F28           -3.1326    -1.4678    -0.0018 F       
  29 C29            2.1384     0.6751    -3.1483 C.3     
  30 C30            3.1757    -0.2864    -3.7342 C.3     
  31 O31            4.3992     0.4159    -3.9620 O.3     
  32 C32            4.9858     0.9646    -2.7801 C.3     
  33 C33            4.0213     1.9764    -2.1559 C.3     
  34 H34            1.2786    -0.5814     0.1516 H       
  35 H35            0.8865     3.0847     0.4053 H       
  36 H36            1.9969     1.7218     0.6840 H       
  37 H37           -0.0496     5.5173    -3.3274 H       
  38 H38           -1.7717     5.3831     0.5521 H       
  39 H39           -1.5200     7.8866    -1.5631 H       
  40 H40           -2.2501     6.9563    -2.8933 H       
  41 H41           -2.9678     6.8948    -1.2656 H       
  42 H42            2.8470     0.4924    -1.1194 H       
  43 H43           -0.6174    -2.1486     0.1364 H       
  44 H44           -1.4123     2.7147    -0.1166 H       
  45 H45           -3.4287     2.7065     1.4390 H       
  46 H46           -4.2462    -0.0125    -1.7689 H       
  47 H47           -5.6947     3.5847     1.3290 H       
  48 H48           -8.6418     0.8232    -2.9049 H       
  49 H49           -9.4547     2.6013    -1.4137 H       
  50 H50           -7.9536     3.5639     0.2831 H       
  51 H51            1.2186     0.1315    -2.9326 H       
  52 H52            1.9332     1.4703    -3.8649 H       
  53 H53            3.3504    -1.1033    -3.0340 H       
  54 H54            2.8063    -0.6887    -4.6775 H       
  55 H55            5.1842     0.1641    -2.0674 H       
  56 H56            5.9204     1.4635    -3.0361 H       
  57 H57            3.8540     2.7979    -2.8525 H       
  58 H58            4.4480     2.3634    -1.2305 H       
@<TRIPOS>BOND
   1    1    2 ar
   2    1    3 1
   3    1   16 ar
   4    2   14 ar
   5    2   34 1
   6    3    4 1
   7    3   35 1
   8    3   36 1
   9    4    5 am
  10    4   13 1
  11    5    6 1
  12    5   11 2
  13    6    7 2
  14    6    8 1
  15    7   10 1
  16    7   37 1
  17    8    9 2
  18    9   10 1
  19    9   38 1
  20   10   12 1
  21   12   39 1
  22   12   40 1
  23   12   41 1
  24   13   29 1
  25   13   33 1
  26   13   42 1
  27   14   19 ar
  28   14   43 1
  29   15   16 ar
  30   15   17 1
  31   15   19 ar
  32   16   44 1
  33   17   20 ar
  34   17   18 ar
  35   18   23 ar
  36   18   45 1
  37   19   28 1
  38   20   21 ar
  39   20   46 1
  40   21   22 ar
  41   21   24 ar
  42   22   23 ar
  43   22   27 ar
  44   23   47 1
  45   24   25 ar
  46   25   26 ar
  47   25   48 1
  48   26   27 ar
  49   26   49 1
  50   27   50 1
  51   29   30 1
  52   29   51 1
  53   29   52 1
  54   30   31 1
  55   30   53 1
  56   30   54 1
  57   31   32 1
  58   32   33 1
  59   32   55 1
  60   32   56 1
  61   33   57 1
  62   33   58 1

#	End of record

