#	Name: ASD04840045
#	Creating user name:	WinNT
#	Creation time:	15. 06. 2019 20:52

#	Modifying user name:	WinNT
#	Modification time:	15. 06. 2019 20:52

#	Program:	/corina/corina34_cracker 3.40 0067  02.08.2006

@<TRIPOS>MOLECULE
ASD04840045
  31   32    0    0    0
SMALL
NO_CHARGES


@<TRIPOS>ATOM
   1 C1             0.6763     2.2267    -1.3772 C.ar    
   2 C2             0.2908     1.1124    -0.6875 C.ar    
   3 C3             1.2533     0.2065    -0.2339 C.ar    
   4 C4             2.6119     0.4537    -0.4937 C.ar    
   5 C5             2.9849     1.5915    -1.1963 C.ar    
   6 C6             2.0180     2.4713    -1.6341 C.ar    
   7 N7             1.1890    -0.9593     0.4592 N.2     
   8 C8             2.3890    -1.4298     0.6360 C.2     
   9 N9             3.3051    -0.5992     0.0691 N.pl3   
  10 C10            4.7579    -0.7874     0.0573 C.3     
  11 C11            5.3507    -0.2638     1.3671 C.3     
  12 P12            7.1290    -0.6600     1.4305 P.3     
  13 O13            7.8625     0.2112     0.4854 O.2     
  14 O14            7.6802    -0.4162     2.9234 O.3     
  15 O15            7.3503    -2.2014     1.0218 O.3     
  16 P16            5.1272     1.5433     1.4557 P.3     
  17 O17            5.5503     2.1560     0.1766 O.2     
  18 O18            3.5758     1.8796     1.7245 O.3     
  19 O19            6.0208     2.1363     2.6564 O.3     
  20 H20           -0.0709     2.9222    -1.7299 H       
  21 H21           -0.7561     0.9320    -0.4927 H       
  22 H22            4.0276     1.7866    -1.3989 H       
  23 H23            2.3066     3.3567    -2.1810 H       
  24 H24            2.6237    -2.3462     1.1573 H       
  25 H25            4.9860    -1.8482    -0.0463 H       
  26 H26            5.1885    -0.2396    -0.7809 H       
  27 H27            4.8433    -0.7344     2.2092 H       
  28 H28            7.5791     0.4931     3.2364 H       
  29 H29            7.1092    -2.4044     0.1076 H       
  30 H30            3.2299     1.5086     2.5478 H       
  31 H31            5.9509     3.0950     2.7623 H       
@<TRIPOS>BOND
   1    1    2 ar
   2    1    6 ar
   3    1   20 1
   4    2    3 ar
   5    2   21 1
   6    3    4 ar
   7    3    7 1
   8    4    5 ar
   9    4    9 1
  10    5    6 ar
  11    5   22 1
  12    6   23 1
  13    7    8 2
  14    8    9 1
  15    8   24 1
  16    9   10 1
  17   10   11 1
  18   10   25 1
  19   10   26 1
  20   11   12 1
  21   11   16 1
  22   11   27 1
  23   12   13 2
  24   12   14 1
  25   12   15 1
  26   14   28 1
  27   15   29 1
  28   16   17 2
  29   16   18 1
  30   16   19 1
  31   18   30 1
  32   19   31 1

#	End of record

