#	Name: ASD03092272
#	Creating user name:	WinNT
#	Creation time:	15. 06. 2019 20:32

#	Modifying user name:	WinNT
#	Modification time:	15. 06. 2019 20:32

#	Program:	/corina/corina34_cracker 3.40 0067  02.08.2006

@<TRIPOS>MOLECULE
ASD03092272
  35   37    0    0    0
SMALL
NO_CHARGES


@<TRIPOS>ATOM
   1 F1             0.0021    -0.0041     0.0020 F       
   2 C2            -0.0169     1.3948     0.0097 C.3     
   3 F3             1.2956     1.8790    -0.0002 F       
   4 F4            -0.6935     1.8582    -1.1237 F       
   5 C5            -0.7223     1.8808     1.2496 C.2     
   6 C6            -0.9215     3.1696     1.5676 C.2     
   7 C7            -1.6406     3.1897     2.8437 C.ar    
   8 C8            -2.1216     4.2063     3.6704 C.ar    
   9 C9            -2.7697     3.8877     4.8307 C.ar    
  10 C10           -3.2888     4.9858     5.7228 C.3     
  11 N11           -4.6605     5.3229     5.3345 N.am    
  12 C12           -5.3316     6.2851     5.9981 C.2     
  13 O13           -4.7986     6.8732     6.9188 O.2     
  14 C14           -6.7155     6.6252     5.6064 C.ar    
  15 C15           -7.4213     7.6269     6.2842 C.ar    
  16 C16           -8.7138     7.9072     5.8790 C.ar    
  17 C17           -9.2632     7.1953     4.8261 C.ar    
  18 Br18         -11.0297     7.5746     4.2680 Br      
  19 N19           -8.5732     6.2562     4.2052 N.ar    
  20 C20           -7.3385     5.9573     4.5511 C.ar    
  21 C21           -2.9539     2.5609     5.1937 C.ar    
  22 C22           -2.4872     1.5417     4.3925 C.ar    
  23 C23           -1.8244     1.8429     3.2075 C.ar    
  24 N24           -1.2596     1.0735     2.2150 N.pl3   
  25 H25           -1.2432     0.1038     2.2030 H       
  26 H26           -0.6104     4.0288     0.9920 H       
  27 H27           -1.9819     5.2411     3.3943 H       
  28 H28           -3.2771     4.6481     6.7591 H       
  29 H29           -2.6553     5.8669     5.6206 H       
  30 H30           -5.0859     4.8536     4.5998 H       
  31 H31           -6.9682     8.1665     7.1027 H       
  32 H32           -9.2884     8.6730     6.3787 H       
  33 H33           -6.8046     5.1859     4.0162 H       
  34 H34           -3.4680     2.3249     6.1138 H       
  35 H35           -2.6352     0.5123     4.6839 H       
@<TRIPOS>BOND
   1    1    2 1
   2    2    3 1
   3    2    4 1
   4    2    5 1
   5    5   24 1
   6    5    6 2
   7    6    7 1
   8    6   26 1
   9    7   23 ar
  10    7    8 ar
  11    8    9 ar
  12    8   27 1
  13    9   10 1
  14    9   21 ar
  15   10   11 1
  16   10   28 1
  17   10   29 1
  18   11   12 am
  19   11   30 1
  20   12   13 2
  21   12   14 1
  22   14   20 ar
  23   14   15 ar
  24   15   16 ar
  25   15   31 1
  26   16   17 ar
  27   16   32 1
  28   17   18 1
  29   17   19 ar
  30   19   20 ar
  31   20   33 1
  32   21   22 ar
  33   21   34 1
  34   22   23 ar
  35   22   35 1
  36   23   24 1
  37   24   25 1

#	End of record

