#	Name: ASD01811858
#	Creating user name:	WinNT
#	Creation time:	15. 06. 2019 19:27

#	Modifying user name:	WinNT
#	Modification time:	15. 06. 2019 19:27

#	Program:	/corina/corina34_cracker 3.40 0067  02.08.2006

@<TRIPOS>MOLECULE
ASD01811858
  56   60    0    0    0
SMALL
NO_CHARGES


@<TRIPOS>ATOM
   1 N1            -0.0158     1.3124     0.0093 N.ar    
   2 C2             0.0021    -0.0041     0.0020 C.ar    
   3 C3             1.1968    -0.7055    -0.0132 C.ar    
   4 C4             2.3959    -0.0149    -0.0209 C.ar    
   5 C5             1.1067     2.0194     0.0023 C.ar    
   6 C6             1.4022     3.4636     0.0068 C.2     
   7 C7             2.3561     1.3764    -0.0130 C.ar    
   8 N8             3.3288     2.3533    -0.0175 N.pl3   
   9 C9             2.7617     3.5823    -0.0058 C.2     
  10 C10            0.4245     4.5603     0.0214 C.2     
  11 O11           -0.7668     4.3132     0.0313 O.2     
  12 N12            0.8473     5.8400     0.0239 N.am    
  13 C13           -0.1275     6.9335     0.0384 C.3     
  14 C14           -0.9345     9.6191     0.8868 C.3     
  15 C15           -0.5147     9.3293    -0.5556 C.3     
  16 C16            0.5033     8.1872    -0.5708 C.3     
  17 C17           -0.5472     7.2234     1.4809 C.3     
  18 C18           -1.5653     8.3654     1.4961 C.3     
  19 O19            0.8954     7.9165    -1.9181 O.3     
  20 C20            4.7713     2.0977    -0.0324 C.3     
  21 C21            5.2309     1.8949    -1.4532 C.ar    
  22 C22            5.2286     0.6269    -2.0048 C.ar    
  23 C23            5.6487     2.9780    -2.2044 C.ar    
  24 C24            6.0701     2.7954    -3.5070 C.ar    
  25 C25            6.0739     1.5228    -4.0620 C.ar    
  26 C26            5.6493     0.4379    -3.3067 C.ar    
  27 N27            6.5010     1.3342    -5.3838 N.pl3   
  28 C28            6.5541     0.1544    -6.0423 C.2     
  29 C29            7.0193     0.3995    -7.2892 C.2     
  30 C30            7.2586     1.7738    -7.3974 C.2     
  31 N31            6.9427     2.3355    -6.2583 N.2     
  32 H32           -0.9315    -0.5470     0.0084 H       
  33 H33            1.1923    -1.7855    -0.0186 H       
  34 H34            3.3386    -0.5419    -0.0324 H       
  35 H35            3.3036     4.5165    -0.0066 H       
  36 H36            1.7971     6.0370     0.0160 H       
  37 H37           -1.0031     6.6475    -0.5443 H       
  38 H38           -0.0589     9.9051     1.4696 H       
  39 H39           -1.6598    10.4327     0.8977 H       
  40 H40           -1.3903     9.0432    -1.1383 H       
  41 H41           -0.0653    10.2224    -0.9897 H       
  42 H42            1.3790     8.4733     0.0119 H       
  43 H43           -0.9966     6.3302     1.9150 H       
  44 H44            0.3284     7.5094     2.0636 H       
  45 H45           -1.8643     8.5719     2.5238 H       
  46 H46           -2.4409     8.0794     0.9134 H       
  47 H47            1.3039     8.6690    -2.3676 H       
  48 H48            5.2957     2.9493     0.4011 H       
  49 H49            4.9877     1.2026     0.5508 H       
  50 H50            4.8978    -0.2165    -1.4169 H       
  51 H51            5.6452     3.9678    -1.7723 H       
  52 H52            6.3960     3.6418    -4.0934 H       
  53 H53            5.6479    -0.5527    -3.7368 H       
  54 H54            6.2754    -0.8102    -5.6446 H       
  55 H55            7.1783    -0.3360    -8.0640 H       
  56 H56            7.6349     2.2838    -8.2718 H       
@<TRIPOS>BOND
   1    1    2 ar
   2    1    5 ar
   3    2    3 ar
   4    2   32 1
   5    3    4 ar
   6    3   33 1
   7    4    7 ar
   8    4   34 1
   9    5    7 ar
  10    5    6 1
  11    6    9 2
  12    6   10 1
  13    7    8 1
  14    8    9 1
  15    8   20 1
  16    9   35 1
  17   10   11 2
  18   10   12 am
  19   12   13 1
  20   12   36 1
  21   13   17 1
  22   13   16 1
  23   13   37 1
  24   14   15 1
  25   14   18 1
  26   14   38 1
  27   14   39 1
  28   15   16 1
  29   15   40 1
  30   15   41 1
  31   16   19 1
  32   16   42 1
  33   17   18 1
  34   17   43 1
  35   17   44 1
  36   18   45 1
  37   18   46 1
  38   19   47 1
  39   20   21 1
  40   20   48 1
  41   20   49 1
  42   21   23 ar
  43   21   22 ar
  44   22   26 ar
  45   22   50 1
  46   23   24 ar
  47   23   51 1
  48   24   25 ar
  49   24   52 1
  50   25   26 ar
  51   25   27 1
  52   26   53 1
  53   27   28 1
  54   27   31 1
  55   28   29 2
  56   28   54 1
  57   29   30 1
  58   29   55 1
  59   30   31 2
  60   30   56 1

#	End of record

