#	Name: ASD01420082
#	Creating user name:	WinNT
#	Creation time:	15. 06. 2019 19:20

#	Modifying user name:	WinNT
#	Modification time:	15. 06. 2019 19:20

#	Program:	/corina/corina34_cracker 3.40 0067  02.08.2006

@<TRIPOS>MOLECULE
ASD01420082
  32   34    0    0    0
SMALL
NO_CHARGES


@<TRIPOS>ATOM
   1 C1            -0.0144     1.2120     0.0087 C.2     
   2 O2             0.1288     0.0132     0.1553 O.2     
   3 C3             2.4669     1.5845    -0.1514 C.3     
   4 N4             1.0612     2.0002    -0.1873 N.am    
   5 C5             1.0496     3.4374    -0.4778 C.3     
   6 C6             2.4815     3.8883    -0.6182 C.ar    
   7 C7             3.0233     5.1334    -0.8883 C.ar    
   8 C8             4.3935     5.2904    -0.9672 C.ar    
   9 C9             5.2254     4.2029    -0.7756 C.ar    
  10 C10            4.6854     2.9603    -0.5056 C.ar    
  11 C11            3.3123     2.8022    -0.4269 C.ar    
  12 C12           -1.3639     1.8018     0.0394 C.ar    
  13 C13           -2.2642     1.4478     1.0556 C.ar    
  14 C14           -3.5303     2.0068     1.0777 C.ar    
  15 C15           -3.9063     2.9136     0.0979 C.ar    
  16 C16           -3.0145     3.2659    -0.9117 C.ar    
  17 C17           -1.7507     2.7210    -0.9409 C.ar    
  18 O18           -5.1488     3.4595     0.1231 O.3     
  19 O19           -1.8953     0.5603     2.0131 O.3     
  20 Cl20          -3.4956     4.4014    -2.1335 Cl      
  21 H21            2.7082     1.1821     0.8324 H       
  22 H22            2.6482     0.8284    -0.9154 H       
  23 H23            0.5113     3.6222    -1.4074 H       
  24 H24            0.5713     3.9758     0.3404 H       
  25 H25            2.3737     5.9831    -1.0379 H       
  26 H26            4.8147     6.2622    -1.1787 H       
  27 H27            6.2967     4.3245    -0.8374 H       
  28 H28            5.3354     2.1108    -0.3564 H       
  29 H29           -4.2260     1.7363     1.8582 H       
  30 H30           -1.0599     2.9999    -1.7229 H       
  31 H31           -5.2070     4.2816     0.6290 H       
  32 H32           -1.4863     0.9667     2.7895 H       
@<TRIPOS>BOND
   1    1    2 2
   2    1    4 am
   3    1   12 1
   4    3    4 1
   5    3   11 1
   6    3   21 1
   7    3   22 1
   8    4    5 1
   9    5    6 1
  10    5   23 1
  11    5   24 1
  12    6    7 ar
  13    6   11 ar
  14    7    8 ar
  15    7   25 1
  16    8    9 ar
  17    8   26 1
  18    9   10 ar
  19    9   27 1
  20   10   11 ar
  21   10   28 1
  22   12   13 ar
  23   12   17 ar
  24   13   14 ar
  25   13   19 1
  26   14   15 ar
  27   14   29 1
  28   15   16 ar
  29   15   18 1
  30   16   17 ar
  31   16   20 1
  32   17   30 1
  33   18   31 1
  34   19   32 1

#	End of record

