#	Name: ASD03091324
#	Creating user name:	WinNT
#	Creation time:	15. 06. 2019 20:30

#	Modifying user name:	WinNT
#	Modification time:	15. 06. 2019 20:30

#	Program:	/corina/corina34_cracker 3.40 0067  02.08.2006

@<TRIPOS>MOLECULE
ASD03091324
  44   46    0    0    0
SMALL
NO_CHARGES


@<TRIPOS>ATOM
   1 C1            -0.0167     1.3804     0.0096 C.ar    
   2 C2             0.0021    -0.0041     0.0020 C.ar    
   3 C3             1.2110    -0.6789    -0.0131 C.ar    
   4 C4             2.3973     0.0299    -0.0207 C.ar    
   5 C5             2.3774     1.4122    -0.0131 C.ar    
   6 C6             1.1709     2.0870     0.0021 C.ar    
   7 C7             3.6717     2.1840    -0.0208 C.3     
   8 C8             3.9202     3.1349    -1.1933 C.3     
   9 C9             3.5933     3.6971     0.1916 C.3     
  10 C10            2.8519     3.2281    -2.2521 C.2     
  11 N11            3.0187     4.0500    -3.3072 N.am    
  12 O12            1.8421     2.5634    -2.1549 O.2     
  13 C13            1.9801     4.1406    -4.3365 C.3     
  14 C14            2.5985     4.5874    -5.6361 C.ar    
  15 C15            3.5824     5.5589    -5.6342 C.ar    
  16 C16            2.1851     4.0212    -6.8278 C.ar    
  17 C17            2.7508     4.4288    -8.0204 C.ar    
  18 C18            3.7341     5.4074    -8.0217 C.ar    
  19 C19            4.1508     5.9703    -6.8241 C.ar    
  20 C20            0.9185     5.1531    -3.9021 C.3     
  21 O21            1.5014     6.4562    -3.8374 O.3     
  22 O22            4.2924     5.8098    -9.1936 O.3     
  23 C23            5.2989     6.8214    -9.1191 C.3     
  24 F24           -1.1583    -0.6959     0.0098 F       
  25 H25           -0.9591     1.9078     0.0170 H       
  26 H26            1.2268    -1.7588    -0.0187 H       
  27 H27            3.3404    -0.4962    -0.0321 H       
  28 H28            1.1565     3.1669     0.0080 H       
  29 H29            4.5333     1.6611     0.3945 H       
  30 H30            4.9454     3.2380    -1.5492 H       
  31 H31            2.6054     4.1344     0.3368 H       
  32 H32            4.4033     4.1701     0.7468 H       
  33 H33            3.8263     4.5816    -3.3850 H       
  34 H34            1.5165     3.1634    -4.4718 H       
  35 H35            3.9065     5.9968    -4.7016 H       
  36 H36            1.4196     3.2594    -6.8262 H       
  37 H37            2.4280     3.9857    -8.9509 H       
  38 H38            4.9190     6.7294    -6.8222 H       
  39 H39            0.1020     5.1557    -4.6241 H       
  40 H40            0.5342     4.8778    -2.9200 H       
  41 H41            0.8842     7.1502    -3.5677 H       
  42 H42            5.6598     7.0494   -10.1220 H       
  43 H43            4.8771     7.7213    -8.6714 H       
  44 H44            6.1275     6.4652    -8.5070 H       
@<TRIPOS>BOND
   1    1    2 ar
   2    1    6 ar
   3    1   25 1
   4    2    3 ar
   5    2   24 1
   6    3    4 ar
   7    3   26 1
   8    4    5 ar
   9    4   27 1
  10    5    6 ar
  11    5    7 1
  12    6   28 1
  13    7    8 1
  14    7    9 1
  15    7   29 1
  16    8    9 1
  17    8   10 1
  18    8   30 1
  19    9   31 1
  20    9   32 1
  21   10   11 am
  22   10   12 2
  23   11   13 1
  24   11   33 1
  25   13   14 1
  26   13   20 1
  27   13   34 1
  28   14   16 ar
  29   14   15 ar
  30   15   19 ar
  31   15   35 1
  32   16   17 ar
  33   16   36 1
  34   17   18 ar
  35   17   37 1
  36   18   19 ar
  37   18   22 1
  38   19   38 1
  39   20   21 1
  40   20   39 1
  41   20   40 1
  42   21   41 1
  43   22   23 1
  44   23   42 1
  45   23   43 1
  46   23   44 1

#	End of record

