#	Name: ASD07930471
#	Creating user name:	WinNT
#	Creation time:	15. 06. 2019 21:12

#	Modifying user name:	WinNT
#	Modification time:	15. 06. 2019 21:12

#	Program:	/corina/corina34_cracker 3.40 0067  02.08.2006

@<TRIPOS>MOLECULE
ASD07930471
  45   47    0    0    0
SMALL
NO_CHARGES


@<TRIPOS>ATOM
   1 Cl1           -8.9997    -4.5030    -8.1392 Cl      
   2 C2            -0.1441     1.4651     0.3086 C.3     
   3 N3             0.5896    -0.2177    -2.0452 N.2     
   4 N4            -0.9976    -1.6992    -1.1808 N.pl3   
   5 C5            -0.9256    -2.8146    -0.2311 C.3     
   6 C6            -1.1669    -2.2859     1.1896 C.3     
   7 S7             0.0525    -0.9768     1.5265 S.o2    
   8 N8            -0.0852     0.0062     0.1881 N.am    
   9 C9            -0.1417    -0.6253    -1.0462 C.2     
  10 C10            0.4586    -3.4619    -0.3072 C.3     
  11 C11           -1.9794    -3.8360    -0.5737 C.ar    
  12 C12           -2.8117    -3.6319    -1.6564 C.ar    
  13 C13           -3.7825    -4.5740    -1.9718 C.ar    
  14 C14           -3.9131    -5.7190    -1.1970 C.ar    
  15 C15           -3.0778    -5.9182    -0.1151 C.ar    
  16 C16           -2.1082    -4.9806     0.1938 C.ar    
  17 N17           -4.6274    -4.3696    -3.0678 N.am    
  18 C18           -5.0469    -5.4201    -3.8005 C.2     
  19 O19           -4.6169    -6.5332    -3.5687 O.2     
  20 O20           -0.3685    -0.1629     2.6126 O.2     
  21 O21            1.3757    -1.4903     1.4583 O.2     
  22 Cl22          -1.0597    -5.2344     1.5539 Cl      
  23 C23           -6.0303    -5.2186    -4.8866 C.ar    
  24 C24           -6.4611    -6.3107    -5.6422 C.ar    
  25 C25           -7.3854    -6.1043    -6.6582 C.ar    
  26 C26           -7.8446    -4.8159    -6.8815 C.ar    
  27 C27           -7.3717    -3.7776    -6.0903 C.ar    
  28 N28           -6.5009    -4.0008    -5.1319 N.ar    
  29 F29           -5.9857    -7.5497    -5.3892 F       
  30 H30            0.8654     1.8741     0.2678 H       
  31 H31           -0.7351     1.8738    -0.5110 H       
  32 H32           -0.6065     1.7328     1.2587 H       
  33 H33            1.1861     0.5388    -1.9327 H       
  34 H34           -1.6431    -1.7184    -1.9046 H       
  35 H35           -2.1746    -1.8773     1.2634 H       
  36 H36           -1.0446    -3.0959     1.9087 H       
  37 H37            1.2196    -2.7227    -0.0573 H       
  38 H38            0.5114    -4.2907     0.3987 H       
  39 H39            0.6309    -3.8335    -1.3174 H       
  40 H40           -2.7083    -2.7404    -2.2571 H       
  41 H41           -4.6673    -6.4529    -1.4399 H       
  42 H42           -3.1792    -6.8083     0.4881 H       
  43 H43           -4.9113    -3.4717    -3.3004 H       
  44 H44           -7.7378    -6.9287    -7.2604 H       
  45 H45           -7.7277    -2.7726    -6.2625 H       
@<TRIPOS>BOND
   1    1   26 1
   2    2    8 1
   3    2   30 1
   4    2   31 1
   5    2   32 1
   6    3    9 2
   7    3   33 1
   8    4    5 1
   9    4    9 1
  10    4   34 1
  11    5    6 1
  12    5   10 1
  13    5   11 1
  14    6    7 1
  15    6   35 1
  16    6   36 1
  17    7    8 am
  18    7   20 2
  19    7   21 2
  20    8    9 1
  21   10   37 1
  22   10   38 1
  23   10   39 1
  24   11   12 ar
  25   11   16 ar
  26   12   13 ar
  27   12   40 1
  28   13   14 ar
  29   13   17 1
  30   14   15 ar
  31   14   41 1
  32   15   16 ar
  33   15   42 1
  34   16   22 1
  35   17   18 am
  36   17   43 1
  37   18   19 2
  38   18   23 1
  39   23   24 ar
  40   23   28 ar
  41   24   25 ar
  42   24   29 1
  43   25   26 ar
  44   25   44 1
  45   26   27 ar
  46   27   28 ar
  47   27   45 1

#	End of record

