#	Name: ASD03220002
#	Creating user name:	WinNT
#	Creation time:	15. 06. 2019 20:34

#	Modifying user name:	WinNT
#	Modification time:	15. 06. 2019 20:34

#	Program:	/corina/corina34_cracker 3.40 0067  02.08.2006

@<TRIPOS>MOLECULE
ASD03220002
  85   89    0    0    0
SMALL
NO_CHARGES


@<TRIPOS>ATOM
   1 C1             0.6352    -0.7454     1.6939 C.3     
   2 C2             1.3333    -2.0374     1.7964 C.3     
   3 C3             2.4924    -2.0049     2.7924 C.3     
   4 C4             3.4890    -0.9409     2.4574 C.3     
   5 C5             2.8292     0.4945     2.2508 C.3     
   6 C6             1.7126     0.2832     1.1653 C.3     
   7 C7             4.6295    -0.7938     3.4237 C.3     
   8 C8             5.7551     0.0563     2.7937 C.3     
   9 C9             5.2062     1.4465     2.4197 C.3     
  10 C10            3.8253     1.3839     1.6505 C.3     
  11 C11            6.1834     2.2270     1.5604 C.3     
  12 C12            5.6811     3.5647     1.0576 C.2     
  13 C13            4.4020     3.7485     1.0182 C.2     
  14 C14            3.3929     2.7742     1.5032 C.2     
  15 C15            7.4830     2.3755     2.4013 C.3     
  16 C16            8.4034     3.4021     1.7276 C.3     
  17 C17            7.7364     4.7270     1.5461 C.3     
  18 C18            6.5618     4.6045     0.5754 C.3     
  19 C19            8.7750     5.7808     1.1249 C.3     
  20 C20            9.2853     5.4759    -0.3482 C.3     
  21 C21            8.0575     5.4119    -1.2377 C.3     
  22 C22            7.1084     4.2876    -0.8405 C.3     
  23 O23            1.7531    -2.5218     0.5790 O.3     
  24 C24            3.2365    -3.3316     2.6664 C.3     
  25 C25            6.5987     1.3795     0.3738 C.3     
  26 C26            8.5203     5.0990    -2.7003 C.3     
  27 C27            7.1652     5.2028     2.9013 C.3     
  28 C28            5.9816     4.2556    -1.7979 C.3     
  29 H29            6.0803     5.5694     0.5813 H       
  30 O30            2.2392     3.1203     1.6921 O.2     
  31 C31            5.0046     2.2003     3.7196 C.3     
  32 C32            2.2472     1.0366     3.5096 C.3     
  33 C33            0.8975    -3.3095    -0.0913 C.2     
  34 C34            1.2879    -3.8771    -1.4316 C.3     
  35 O35           -0.1857    -3.5634     0.3800 O.2     
  36 C36            2.0759    -2.0010     4.2473 C.2     
  37 O37            2.3938    -1.0819     4.9642 O.2     
  38 O38            1.3533    -3.0186     4.7413 O.3     
  39 H39           -0.1229    -0.8047     0.9991 H       
  40 H40            0.1700    -0.4059     2.6627 H       
  41 H41            0.5466    -2.7987     2.2025 H       
  42 H42            3.9687    -1.1125     1.5053 H       
  43 H43            2.0990    -0.0208     0.3126 H       
  44 H44            1.1921     1.2396     1.0609 H       
  45 H45            4.2742    -0.3173     4.4025 H       
  46 H46            5.0383    -1.7506     3.6945 H       
  47 H47            6.5618     0.1739     3.4965 H       
  48 H48            6.1062    -0.5142     1.8822 H       
  49 H49            4.0334     0.9990     0.6511 H       
  50 H50            4.0139     4.7074     0.6306 H       
  51 H51            7.4169     2.6556     3.4244 H       
  52 H52            8.0720     1.4118     2.4245 H       
  53 H53            9.3838     3.5253     2.3753 H       
  54 H54            8.7945     2.9901     0.7845 H       
  55 H55            8.2430     6.8114     1.0273 H       
  56 H56            9.5735     5.7978     1.7758 H       
  57 H57           10.0155     6.1973    -0.6930 H       
  58 H58            9.7195     4.5156    -0.2809 H       
  59 H59            7.5430     6.3524    -1.2218 H       
  60 H60            7.6481     3.3980    -0.8102 H       
  61 H61            3.6099    -3.4435     1.6485 H       
  62 H62            4.0737    -3.3463     3.3642 H       
  63 H63            2.5573    -4.1524     2.8965 H       
  64 H64            5.7382     1.2164    -0.2750 H       
  65 H65            7.3818     1.8936    -0.1835 H       
  66 H66            6.9747     0.4193     0.7270 H       
  67 H67            9.0438     4.1431    -2.7190 H       
  68 H68            7.6495     5.0492    -3.3541 H       
  69 H69            9.1896     5.8867    -3.0459 H       
  70 H70            7.9759     5.2989     3.6236 H       
  71 H71            6.6782     6.1693     2.7712 H       
  72 H72            6.4389     4.4760     3.2648 H       
  73 H73            6.3640     4.0787    -2.8032 H       
  74 H74            5.2949     3.4546    -1.5242 H       
  75 H75            5.4556     5.2099    -1.7720 H       
  76 H76            5.9740     2.4133     4.1702 H       
  77 H77            4.4833     3.1364     3.5196 H       
  78 H78            4.4116     1.5931     4.4035 H       
  79 H79            2.9827     0.9640     4.3108 H       
  80 H80            1.9721     2.0810     3.3625 H       
  81 H81            1.3607     0.4616     3.7771 H       
  82 H82            1.7782    -4.8401    -1.2895 H       
  83 H83            0.3958    -4.0103    -2.0436 H       
  84 H84            1.9722    -3.1913    -1.9312 H       
  85 H85            1.1110    -2.9717     5.6763 H       
@<TRIPOS>BOND
   1    1    2 1
   2    1    6 1
   3    1   39 1
   4    1   40 1
   5    2    3 1
   6    2   23 1
   7    2   41 1
   8    3    4 1
   9    3   24 1
  10    3   36 1
  11    4    5 1
  12    4    7 1
  13    4   42 1
  14    5    6 1
  15    5   32 1
  16    5   10 1
  17    6   43 1
  18    6   44 1
  19    7    8 1
  20    7   45 1
  21    7   46 1
  22    8    9 1
  23    8   47 1
  24    8   48 1
  25    9   10 1
  26    9   11 1
  27    9   31 1
  28   10   14 1
  29   10   49 1
  30   11   12 1
  31   11   15 1
  32   11   25 1
  33   12   13 2
  34   12   18 1
  35   13   14 1
  36   13   50 1
  37   14   30 2
  38   15   16 1
  39   15   51 1
  40   15   52 1
  41   16   17 1
  42   16   53 1
  43   16   54 1
  44   17   18 1
  45   17   19 1
  46   17   27 1
  47   18   29 1
  48   18   22 1
  49   19   20 1
  50   19   55 1
  51   19   56 1
  52   20   21 1
  53   20   57 1
  54   20   58 1
  55   21   22 1
  56   21   26 1
  57   21   59 1
  58   22   28 1
  59   22   60 1
  60   23   33 1
  61   24   61 1
  62   24   62 1
  63   24   63 1
  64   25   64 1
  65   25   65 1
  66   25   66 1
  67   26   67 1
  68   26   68 1
  69   26   69 1
  70   27   70 1
  71   27   71 1
  72   27   72 1
  73   28   73 1
  74   28   74 1
  75   28   75 1
  76   31   76 1
  77   31   77 1
  78   31   78 1
  79   32   79 1
  80   32   80 1
  81   32   81 1
  82   33   34 1
  83   33   35 2
  84   34   82 1
  85   34   83 1
  86   34   84 1
  87   36   37 2
  88   36   38 1
  89   38   85 1

#	End of record

