#	Name: ASD01910822
#	Creating user name:	WinNT
#	Creation time:	15. 06. 2019 19:56

#	Modifying user name:	WinNT
#	Modification time:	15. 06. 2019 19:56

#	Program:	/corina/corina34_cracker 3.40 0067  02.08.2006

@<TRIPOS>MOLECULE
ASD01910822
  48   51    0    0    0
SMALL
NO_CHARGES


@<TRIPOS>ATOM
   1 N1             0.0552     1.6372    -0.2985 N.ar    
   2 C2             0.0107     0.3183    -0.3259 C.ar    
   3 C3             1.1692    -0.4289    -0.2934 C.ar    
   4 C4             2.3979     0.2282    -0.2313 C.ar    
   5 C5             2.4006     1.6227    -0.2046 C.ar    
   6 C6             1.1976     2.2958    -0.2399 C.ar    
   7 N7             3.5901    -0.4888    -0.1965 N.3     
   8 C8             4.7464     0.4150    -0.1327 C.3     
   9 C9             6.0213    -0.4065     0.0863 C.3     
  10 N10            6.0964    -1.4398    -0.9578 N.am    
  11 C11            4.9210    -2.2971    -1.1742 C.3     
  12 C12            3.6895    -1.4011    -1.3435 C.3     
  13 C13            7.2127    -1.5970    -1.6963 C.2     
  14 C14            7.3148    -2.7207    -2.6520 C.ar    
  15 O15            8.1357    -0.8152    -1.5768 O.2     
  16 C16            7.9300    -2.5418    -3.8926 C.ar    
  17 N17            8.0252    -3.5368    -4.7509 N.ar    
  18 C18            7.5512    -4.7367    -4.4857 C.ar    
  19 C19            6.9196    -5.0051    -3.2673 C.ar    
  20 C20            6.8020    -3.9787    -2.3243 C.ar    
  21 C21            6.4061    -6.3122    -2.9871 C.1     
  22 C22            5.9851    -7.3838    -2.7573 C.1     
  23 C23            5.4715    -8.6908    -2.4771 C.ar    
  24 C24            4.8417    -8.9510    -1.2572 C.ar    
  25 C25            4.3492   -10.2121    -0.9945 C.ar    
  26 C26            4.4774   -11.2186    -1.9355 C.ar    
  27 C27            5.1003   -10.9685    -3.1456 C.ar    
  28 C28            5.5927    -9.7107    -3.4246 C.ar    
  29 H29           -0.9452    -0.1820    -0.3739 H       
  30 H30            1.1258    -1.5078    -0.3153 H       
  31 H31            3.3318     2.1677    -0.1563 H       
  32 H32            1.1901     3.3756    -0.2199 H       
  33 H33            4.8269     0.9691    -1.0679 H       
  34 H34            4.6171     1.1132     0.6943 H       
  35 H35            6.8926     0.2450     0.0200 H       
  36 H36            5.9880    -0.8795     1.0678 H       
  37 H37            5.0650    -2.8955    -2.0738 H       
  38 H38            4.7820    -2.9518    -0.3139 H       
  39 H39            2.7937    -2.0200    -1.3947 H       
  40 H40            3.7847    -0.8217    -2.2619 H       
  41 H41            8.3331    -1.5741    -4.1524 H       
  42 H42            7.6512    -5.5234    -5.2189 H       
  43 H43            6.3204    -4.1513    -1.3732 H       
  44 H44            4.7412    -8.1665    -0.5217 H       
  45 H45            3.8625   -10.4148    -0.0519 H       
  46 H46            4.0898   -12.2042    -1.7243 H       
  47 H47            5.1971   -11.7589    -3.8751 H       
  48 H48            6.0783    -9.5168    -4.3696 H       
@<TRIPOS>BOND
   1    1    2 ar
   2    1    6 ar
   3    2    3 ar
   4    2   29 1
   5    3    4 ar
   6    3   30 1
   7    4    5 ar
   8    4    7 1
   9    5    6 ar
  10    5   31 1
  11    6   32 1
  12    7    8 1
  13    7   12 1
  14    8    9 1
  15    8   33 1
  16    8   34 1
  17    9   10 1
  18    9   35 1
  19    9   36 1
  20   10   11 1
  21   10   13 am
  22   11   12 1
  23   11   37 1
  24   11   38 1
  25   12   39 1
  26   12   40 1
  27   13   14 1
  28   13   15 2
  29   14   16 ar
  30   14   20 ar
  31   16   17 ar
  32   16   41 1
  33   17   18 ar
  34   18   19 ar
  35   18   42 1
  36   19   20 ar
  37   19   21 1
  38   20   43 1
  39   21   22 3
  40   22   23 1
  41   23   24 ar
  42   23   28 ar
  43   24   25 ar
  44   24   44 1
  45   25   26 ar
  46   25   45 1
  47   26   27 ar
  48   26   46 1
  49   27   28 ar
  50   27   47 1
  51   28   48 1

#	End of record

