#	Name: ASD02408408
#	Creating user name:	WinNT
#	Creation time:	15. 06. 2019 20:21

#	Modifying user name:	WinNT
#	Modification time:	15. 06. 2019 20:21

#	Program:	/corina/corina34_cracker 3.40 0067  02.08.2006

@<TRIPOS>MOLECULE
ASD02408408
  49   52    0    0    0
SMALL
NO_CHARGES


@<TRIPOS>ATOM
   1 N1            -0.0317     1.5437    -0.4890 N.am    
   2 C2            -0.0885     0.1880    -0.5061 C.2     
   3 N3             0.9710    -0.5667    -0.4851 N.2     
   4 C4             2.2085    -0.0498    -0.4449 C.2     
   5 C5             2.3678     1.3450    -0.4250 C.2     
   6 C6             1.1644     2.1762    -0.4488 C.2     
   7 N7             3.4602    -0.5837    -0.4161 N.pl3   
   8 N8             4.3851     0.4674    -0.3787 N.2     
   9 C9             3.7500     1.6074    -0.3837 C.2     
  10 C10           -1.4415    -0.4740    -0.5511 C.3     
  11 C11           -1.2646    -1.9864    -0.7000 C.3     
  12 C12            3.7702    -1.9496    -0.4222 C.ar    
  13 C13            3.2558    -2.7842     0.5611 C.ar    
  14 C14            3.5634    -4.1308     0.5523 C.ar    
  15 C15            4.3825    -4.6479    -0.4343 C.ar    
  16 C16            4.8968    -3.8191    -1.4149 C.ar    
  17 C17            4.5880    -2.4732    -1.4152 C.ar    
  18 C18            5.1484    -1.5710    -2.4844 C.3     
  19 C19            2.3634    -2.2213     1.6371 C.3     
  20 O20            1.2360     3.3924    -0.4336 O.2     
  21 C21           -2.6300    -2.6890    -0.6014 C.3     
  22 C22           -2.8461    -3.4224    -1.9412 C.3     
  23 C23           -1.4147    -3.6316    -2.4948 C.3     
  24 C24           -0.6986    -2.3173    -2.0964 C.3     
  25 C25            5.7899    -4.3867    -2.4878 C.3     
  26 H26           -0.8515     2.0617    -0.5098 H       
  27 H27            4.2071     2.5856    -0.3601 H       
  28 H28           -1.9814    -0.2604     0.3714 H       
  29 H29           -2.0064    -0.0889    -1.4001 H       
  30 H30           -0.5949    -2.3617     0.0737 H       
  31 H31            3.1639    -4.7804     1.3170 H       
  32 H32            4.6215    -5.7011    -0.4390 H       
  33 H33            4.4295    -1.4829    -3.2989 H       
  34 H34            5.3423    -0.5848    -2.0626 H       
  35 H35            6.0787    -1.9928    -2.8648 H       
  36 H36            1.3206    -2.3356     1.3409 H       
  37 H37            2.5369    -2.7573     2.5702 H       
  38 H38            2.5871    -1.1639     1.7784 H       
  39 H39           -2.6226    -3.4059     0.2197 H       
  40 H40           -3.4187    -1.9525    -0.4474 H       
  41 H41           -3.3354    -4.3823    -1.7762 H       
  42 H42           -3.4325    -2.8065    -2.6230 H       
  43 H43           -0.9388    -4.4899    -2.0206 H       
  44 H44           -1.4329    -3.7485    -3.5784 H       
  45 H45           -0.9382    -1.5229    -2.8032 H       
  46 H46            0.3793    -2.4707    -2.0445 H       
  47 H47            5.1825    -4.7080    -3.3339 H       
  48 H48            6.4946    -3.6226    -2.8158 H       
  49 H49            6.3388    -5.2402    -2.0897 H       
@<TRIPOS>BOND
   1    1    2 1
   2    1    6 am
   3    1   26 1
   4    2    3 2
   5    2   10 1
   6    3    4 1
   7    4    5 2
   8    4    7 1
   9    5    6 1
  10    5    9 1
  11    6   20 2
  12    7    8 1
  13    7   12 1
  14    8    9 2
  15    9   27 1
  16   10   11 1
  17   10   28 1
  18   10   29 1
  19   11   21 1
  20   11   24 1
  21   11   30 1
  22   12   13 ar
  23   12   17 ar
  24   13   14 ar
  25   13   19 1
  26   14   15 ar
  27   14   31 1
  28   15   16 ar
  29   15   32 1
  30   16   17 ar
  31   16   25 1
  32   17   18 1
  33   18   33 1
  34   18   34 1
  35   18   35 1
  36   19   36 1
  37   19   37 1
  38   19   38 1
  39   21   22 1
  40   21   39 1
  41   21   40 1
  42   22   23 1
  43   22   41 1
  44   22   42 1
  45   23   24 1
  46   23   43 1
  47   23   44 1
  48   24   45 1
  49   24   46 1
  50   25   47 1
  51   25   48 1
  52   25   49 1

#	End of record

