#	Name: ASD03330295
#	Creating user name:	WinNT
#	Creation time:	15. 06. 2019 20:37

#	Modifying user name:	WinNT
#	Modification time:	15. 06. 2019 20:37

#	Program:	/corina/corina34_cracker 3.40 0067  02.08.2006

@<TRIPOS>MOLECULE
ASD03330295
  58   61    0    0    0
SMALL
NO_CHARGES


@<TRIPOS>ATOM
   1 C1            -0.0016     1.4737     0.1417 C.3     
   2 N2            -0.0493     0.0272    -0.1140 N.3     
   3 C3             0.1600    -0.2678    -1.5430 C.3     
   4 C4             1.3892     0.4765    -1.9971 C.2     
   5 N5             1.9585     1.4911    -1.2951 N.pl3   
   6 C6             1.4373     1.9819    -0.0161 C.3     
   7 C7             2.1285     0.3001    -3.1206 C.2     
   8 N8             3.1376     1.2006    -3.0932 N.2     
   9 C9             3.0406     1.9189    -1.9969 C.2     
  10 C10            3.9555     3.0098    -1.5946 C.ar    
  11 C11            4.8343     3.5658    -2.5247 C.ar    
  12 C12            1.8778    -0.6933    -4.1798 C.2     
  13 O13            0.9320    -1.4526    -4.0897 O.2     
  14 C14            2.4471    -1.7479    -6.3013 C.3     
  15 N15            2.6964    -0.7603    -5.2483 N.am    
  16 C16            3.5139    -1.6131    -7.3898 C.3     
  17 C17           -1.3129    -0.5504     0.3632 C.3     
  18 C18            5.6847     4.5832    -2.1434 C.ar    
  19 C19            5.6672     5.0522    -0.8420 C.ar    
  20 C20            4.7981     4.5050     0.0850 C.ar    
  21 C21            3.9390     3.4908    -0.2851 C.ar    
  22 C22            3.2535    -2.6445    -8.4895 C.3     
  23 C23            3.4581    -0.2056    -7.9871 C.3     
  24 C24            4.8967    -1.8545    -6.7813 C.3     
  25 O25            4.2498    -2.5186    -9.5061 O.3     
  26 C26           -1.3695    -2.0328    -0.0111 C.3     
  27 C27           -2.5648    -2.8437     0.4936 C.3     
  28 C28           -2.4619    -2.4737    -0.9874 C.3     
  29 H29           -0.6478     1.9888    -0.5690 H       
  30 H30           -0.3474     1.6740     1.1558 H       
  31 H31            0.3063    -1.3392    -1.6804 H       
  32 H32           -0.7047     0.0633    -2.1181 H       
  33 H33            1.4451     3.0718    -0.0098 H       
  34 H34            2.0523     1.6044     0.8008 H       
  35 H35            4.8492     3.2003    -3.5409 H       
  36 H36            2.4869    -2.7506    -5.8758 H       
  37 H37            1.4619    -1.5759    -6.7348 H       
  38 H38            3.4507    -0.1547    -5.3201 H       
  39 H39           -1.3736    -0.4466     1.4466 H       
  40 H40           -2.1494    -0.0266    -0.0994 H       
  41 H41            6.3657     5.0142    -2.8624 H       
  42 H42            6.3351     5.8485    -0.5483 H       
  43 H43            4.7892     4.8754     1.0995 H       
  44 H44            3.2611     3.0644     0.4394 H       
  45 H45            3.2932    -3.6472    -8.0640 H       
  46 H46            2.2683    -2.4726    -8.9230 H       
  47 H47            3.6436     0.5291    -7.2036 H       
  48 H48            4.2180    -0.1096    -8.7625 H       
  49 H49            2.4729    -0.0337    -8.4206 H       
  50 H50            4.9365    -2.8572    -6.3558 H       
  51 H51            5.6567    -1.7585    -7.5568 H       
  52 H52            5.0822    -1.1197    -5.9978 H       
  53 H53            4.1468    -3.1431   -10.2372 H       
  54 H54           -0.4064    -2.5398    -0.0704 H       
  55 H55           -2.3882    -3.8842     0.7659 H       
  56 H56           -3.3108    -2.3210     1.0923 H       
  57 H57           -3.1402    -1.7076    -1.3631 H       
  58 H58           -2.2175    -3.2709    -1.6895 H       
@<TRIPOS>BOND
   1    1    2 1
   2    1    6 1
   3    1   29 1
   4    1   30 1
   5    2    3 1
   6    2   17 1
   7    3    4 1
   8    3   31 1
   9    3   32 1
  10    4    5 1
  11    4    7 2
  12    5    6 1
  13    5    9 1
  14    6   33 1
  15    6   34 1
  16    7    8 1
  17    7   12 1
  18    8    9 2
  19    9   10 1
  20   10   11 ar
  21   10   21 ar
  22   11   18 ar
  23   11   35 1
  24   12   13 2
  25   12   15 am
  26   14   15 1
  27   14   16 1
  28   14   36 1
  29   14   37 1
  30   15   38 1
  31   16   22 1
  32   16   23 1
  33   16   24 1
  34   17   26 1
  35   17   39 1
  36   17   40 1
  37   18   19 ar
  38   18   41 1
  39   19   20 ar
  40   19   42 1
  41   20   21 ar
  42   20   43 1
  43   21   44 1
  44   22   25 1
  45   22   45 1
  46   22   46 1
  47   23   47 1
  48   23   48 1
  49   23   49 1
  50   24   50 1
  51   24   51 1
  52   24   52 1
  53   25   53 1
  54   26   27 1
  55   26   28 1
  56   26   54 1
  57   27   28 1
  58   27   55 1
  59   27   56 1
  60   28   57 1
  61   28   58 1

#	End of record

