#	Name: ASD01815868
#	Creating user name:	WinNT
#	Creation time:	15. 06. 2019 19:34

#	Modifying user name:	WinNT
#	Modification time:	15. 06. 2019 19:34

#	Program:	/corina/corina34_cracker 3.40 0067  02.08.2006

@<TRIPOS>MOLECULE
ASD01815868
  54   59    0    0    0
SMALL
NO_CHARGES


@<TRIPOS>ATOM
   1 C1            -0.0167     1.3813     0.0096 C.ar    
   2 C2             0.0021    -0.0041     0.0020 C.ar    
   3 C3             1.1984    -0.6909    -0.0131 C.ar    
   4 C4             2.4015     0.0059    -0.0204 C.ar    
   5 C5             2.3790     1.4106    -0.0127 C.ar    
   6 C6             1.1663     2.0916     0.0022 C.ar    
   7 N7             3.6053    -0.6772    -0.0347 N.pl3   
   8 C8             4.7970    -0.0586    -0.0423 C.2     
   9 C9             4.9000     1.3103    -0.0359 C.2     
  10 C10            3.6670     2.1301    -0.0207 C.2     
  11 C11            5.9971     2.2729    -0.0408 C.2     
  12 N12            5.4246     3.4960    -0.0295 N.am    
  13 N13            4.0323     3.3799    -0.0176 N.2     
  14 C14            6.1265     4.7082    -0.0299 C.ar    
  15 O15            7.1915     2.0229    -0.0528 O.2     
  16 C16            3.5779    -2.1419    -0.0413 C.3     
  17 C17            3.5555    -2.6375    -1.4643 C.ar    
  18 C18            4.7443    -2.8865    -2.1261 C.ar    
  19 C19            4.7296    -3.3405    -3.4293 C.ar    
  20 C20            3.5142    -3.5480    -4.0784 C.ar    
  21 C21            2.3197    -3.2955    -3.4070 C.ar    
  22 C22            2.3460    -2.8472    -2.1019 C.ar    
  23 C23            3.4921    -4.0355    -5.4798 C.ar    
  24 C24            5.8875     5.6524     0.9629 C.ar    
  25 C25            7.0666     4.9676    -1.0181 C.ar    
  26 C26            7.7572     6.1638    -1.0160 C.ar    
  27 C27            7.5143     7.1036    -0.0309 C.ar    
  28 C28            6.5829     6.8479     0.9586 C.ar    
  29 C29            2.2767    -4.2430    -6.1288 C.ar    
  30 C30            2.2620    -4.6966    -7.4323 C.ar    
  31 C31            3.4509    -4.9456    -8.0940 C.ar    
  32 C32            4.6603    -4.7418    -7.4544 C.ar    
  33 C33            4.6868    -4.2821    -6.1532 C.ar    
  34 F34            4.9775     5.4024     1.9296 F       
  35 H35           -0.9602     1.9068     0.0170 H       
  36 H36           -0.9289    -0.5516     0.0083 H       
  37 H37            1.2004    -1.7709    -0.0189 H       
  38 H38            1.1506     3.1715     0.0081 H       
  39 H39            5.6983    -0.6536    -0.0534 H       
  40 H40            4.4656    -2.5242     0.4626 H       
  41 H41            2.6861    -2.4910     0.4791 H       
  42 H42            5.6858    -2.7250    -1.6221 H       
  43 H43            5.6584    -3.5343    -3.9452 H       
  44 H44            1.3749    -3.4547    -3.9054 H       
  45 H45            1.4207    -2.6512    -1.5805 H       
  46 H46            7.2580     4.2345    -1.7877 H       
  47 H47            8.4884     6.3655    -1.7848 H       
  48 H48            8.0563     8.0377    -0.0321 H       
  49 H49            6.3956     7.5839     1.7264 H       
  50 H50            1.3479    -4.0495    -5.6128 H       
  51 H51            1.3206    -4.8577    -7.9363 H       
  52 H52            3.4348    -5.3008    -9.1138 H       
  53 H53            5.5855    -4.9382    -7.9756 H       
  54 H54            5.6316    -4.1230    -5.6548 H       
@<TRIPOS>BOND
   1    1    2 ar
   2    1    6 ar
   3    1   35 1
   4    2    3 ar
   5    2   36 1
   6    3    4 ar
   7    3   37 1
   8    4    5 ar
   9    4    7 1
  10    5    6 ar
  11    5   10 1
  12    6   38 1
  13    7    8 1
  14    7   16 1
  15    8    9 2
  16    8   39 1
  17    9   10 1
  18    9   11 1
  19   10   13 2
  20   11   12 am
  21   11   15 2
  22   12   13 1
  23   12   14 1
  24   14   24 ar
  25   14   25 ar
  26   16   17 1
  27   16   40 1
  28   16   41 1
  29   17   18 ar
  30   17   22 ar
  31   18   19 ar
  32   18   42 1
  33   19   20 ar
  34   19   43 1
  35   20   21 ar
  36   20   23 1
  37   21   22 ar
  38   21   44 1
  39   22   45 1
  40   23   29 ar
  41   23   33 ar
  42   24   34 1
  43   24   28 ar
  44   25   26 ar
  45   25   46 1
  46   26   27 ar
  47   26   47 1
  48   27   28 ar
  49   27   48 1
  50   28   49 1
  51   29   30 ar
  52   29   50 1
  53   30   31 ar
  54   30   51 1
  55   31   32 ar
  56   31   52 1
  57   32   33 ar
  58   32   53 1
  59   33   54 1

#	End of record

