#	Name: ASD06710071
#	Creating user name:	WinNT
#	Creation time:	15. 06. 2019 21:08

#	Modifying user name:	WinNT
#	Modification time:	15. 06. 2019 21:08

#	Program:	/corina/corina34_cracker 3.40 0067  02.08.2006

@<TRIPOS>MOLECULE
ASD06710071
  45   47    0    0    0
SMALL
NO_CHARGES


@<TRIPOS>ATOM
   1 C1            -0.0184     1.5028     0.0103 C.3     
   2 C2             0.0021    -0.0041     0.0020 C.ar    
   3 C3             0.0229    -0.7006     1.1962 C.ar    
   4 C4             0.0421    -2.0819     1.1913 C.ar    
   5 C5             0.0400    -2.7702    -0.0132 C.ar    
   6 O6             0.0585    -4.1290    -0.0207 O.3     
   7 C7             0.0551    -4.7709    -1.2974 C.3     
   8 C8             0.0776    -6.2886    -1.1053 C.3     
   9 N9             0.0742    -6.9466    -2.4142 N.pl3   
  10 C10            1.1721    -7.2961    -3.1486 C.2     
  11 S11            2.8438    -7.0223    -2.6634 S.3     
  12 C12            3.7048    -7.7251    -4.0921 C.3     
  13 C13            5.2160    -7.5967    -3.8906 C.3     
  14 C14            5.9328    -8.1818    -5.0801 C.2     
  15 O15            5.3000    -8.6531    -5.9950 O.2     
  16 O16            7.2744    -8.1794    -5.1230 O.3     
  17 N17            0.7963    -7.8658    -4.2674 N.2     
  18 C18           -0.5604    -7.9169    -4.3201 C.ar    
  19 C19           -1.4661    -8.4079    -5.2635 C.ar    
  20 C20           -2.8195    -8.3131    -5.0263 C.ar    
  21 C21           -3.2902    -7.7338    -3.8578 C.ar    
  22 C22           -2.4085    -7.2436    -2.9160 C.ar    
  23 C23           -1.0429    -7.3359    -3.1354 C.ar    
  24 C24            0.0187    -2.0690    -1.2101 C.ar    
  25 C25           -0.0057    -0.6878    -1.1997 C.ar    
  26 H26            1.0042     1.8801     0.0026 H       
  27 H27           -0.5455     1.8639    -0.8728 H       
  28 H28           -0.5286     1.8543     0.9071 H       
  29 H29            0.0245    -0.1643     2.1337 H       
  30 H30            0.0590    -2.6255     2.1244 H       
  31 H31           -0.8440    -4.4872    -1.8443 H       
  32 H32            0.9357    -4.4629    -1.8612 H       
  33 H33            0.9767    -6.5723    -0.5584 H       
  34 H34           -0.8030    -6.5966    -0.5415 H       
  35 H35            3.4399    -8.7774    -4.1943 H       
  36 H36            3.4115    -7.1873    -4.9937 H       
  37 H37            5.4808    -6.5443    -3.7883 H       
  38 H38            5.5093    -8.1345    -2.9890 H       
  39 H39            7.6893    -8.5658    -5.9064 H       
  40 H40           -1.1062    -8.8599    -6.1759 H       
  41 H41           -3.5193    -8.6925    -5.7562 H       
  42 H42           -4.3539    -7.6655    -3.6837 H       
  43 H43           -2.7815    -6.7929    -2.0082 H       
  44 H44            0.0174    -2.6025    -2.1491 H       
  45 H45           -0.0268    -0.1415    -2.1312 H       
@<TRIPOS>BOND
   1    1    2 1
   2    1   26 1
   3    1   27 1
   4    1   28 1
   5    2    3 ar
   6    2   25 ar
   7    3    4 ar
   8    3   29 1
   9    4    5 ar
  10    4   30 1
  11    5    6 1
  12    5   24 ar
  13    6    7 1
  14    7    8 1
  15    7   31 1
  16    7   32 1
  17    8    9 1
  18    8   33 1
  19    8   34 1
  20    9   10 1
  21    9   23 1
  22   10   11 1
  23   10   17 2
  24   11   12 1
  25   12   13 1
  26   12   35 1
  27   12   36 1
  28   13   14 1
  29   13   37 1
  30   13   38 1
  31   14   15 2
  32   14   16 1
  33   16   39 1
  34   17   18 1
  35   18   19 ar
  36   18   23 ar
  37   19   20 ar
  38   19   40 1
  39   20   21 ar
  40   20   41 1
  41   21   22 ar
  42   21   42 1
  43   22   23 ar
  44   22   43 1
  45   24   25 ar
  46   24   44 1
  47   25   45 1

#	End of record

