#	Name: ASD01910487
#	Creating user name:	WinNT
#	Creation time:	15. 06. 2019 19:55

#	Modifying user name:	WinNT
#	Modification time:	15. 06. 2019 19:55

#	Program:	/corina/corina34_cracker 3.40 0067  02.08.2006

@<TRIPOS>MOLECULE
ASD01910487
  47   50    0    0    0
SMALL
NO_CHARGES


@<TRIPOS>ATOM
   1 C1             0.0502     1.4720     0.0681 C.ar    
   2 C2             0.0550    -0.0120     0.0470 C.2     
   3 N3            -1.0304    -0.8184     0.0498 N.2     
   4 C4            -0.5607    -2.0407     0.0264 C.2     
   5 O5             0.7728    -1.9496     0.0102 O.3     
   6 N6             1.1096    -0.7845     0.0166 N.2     
   7 C7            -1.3712    -3.3112     0.0197 C.3     
   8 C8            -1.0550    -4.1123    -1.2453 C.3     
   9 C9            -1.9018    -5.3868    -1.2691 C.3     
  10 C10           -1.5542    -6.2489    -0.0514 C.3     
  11 N11           -1.7170    -5.4388     1.1635 N.am    
  12 C12           -1.0176    -4.1497     1.2521 C.3     
  13 C13           -2.4932    -5.8700     2.1774 C.2     
  14 C14           -3.2640    -7.1223     2.0366 C.ar    
  15 O15           -2.5590    -5.2283     3.2079 O.2     
  16 C16            1.2529     2.1752     0.0623 C.ar    
  17 C17            1.2427     3.5553     0.0814 C.ar    
  18 C18            0.0412     4.2402     0.1064 C.ar    
  19 C19           -1.1558     3.5470     0.1122 C.ar    
  20 C20           -1.1572     2.1670     0.0878 C.ar    
  21 C21           -2.6141    -8.3107     1.6977 C.ar    
  22 C22           -3.3382    -9.4766     1.5681 C.ar    
  23 C23           -4.7092    -9.4705     1.7730 C.ar    
  24 C24           -5.3598    -8.2929     2.1093 C.ar    
  25 C25           -4.6447    -7.1229     2.2476 C.ar    
  26 F26           -5.4142   -10.6158     1.6443 F       
  27 C27           -5.3530    -5.8440     2.6135 C.3     
  28 H28           -2.4330    -3.0654     0.0388 H       
  29 H29           -1.2826    -3.5086    -2.1238 H       
  30 H30            0.0020    -4.3784    -1.2518 H       
  31 H31           -2.9587    -5.1220    -1.2376 H       
  32 H32           -1.6932    -5.9452    -2.1817 H       
  33 H33           -2.2228    -7.1087    -0.0096 H       
  34 H34           -0.5216    -6.5896    -0.1277 H       
  35 H35            0.0587    -4.3193     1.2820 H       
  36 H36           -1.3321    -3.6246     2.1539 H       
  37 H37            2.1916     1.6415     0.0432 H       
  38 H38            2.1744     4.1014     0.0773 H       
  39 H39            0.0377     5.3200     0.1217 H       
  40 H40           -2.0911     4.0867     0.1320 H       
  41 H41           -2.0924     1.6268     0.0924 H       
  42 H42           -1.5461    -8.3165     1.5371 H       
  43 H43           -2.8364   -10.3964     1.3060 H       
  44 H44           -6.4282    -8.2935     2.2672 H       
  45 H45           -5.4574    -5.7837     3.6968 H       
  46 H46           -4.7734    -4.9927     2.2564 H       
  47 H47           -6.3403    -5.8307     2.1520 H       
@<TRIPOS>BOND
   1    1    2 1
   2    1   16 ar
   3    1   20 ar
   4    2    3 1
   5    2    6 2
   6    3    4 2
   7    4    5 1
   8    4    7 1
   9    5    6 1
  10    7    8 1
  11    7   12 1
  12    7   28 1
  13    8    9 1
  14    8   29 1
  15    8   30 1
  16    9   10 1
  17    9   31 1
  18    9   32 1
  19   10   11 1
  20   10   33 1
  21   10   34 1
  22   11   12 1
  23   11   13 am
  24   12   35 1
  25   12   36 1
  26   13   14 1
  27   13   15 2
  28   14   21 ar
  29   14   25 ar
  30   16   17 ar
  31   16   37 1
  32   17   18 ar
  33   17   38 1
  34   18   19 ar
  35   18   39 1
  36   19   20 ar
  37   19   40 1
  38   20   41 1
  39   21   22 ar
  40   21   42 1
  41   22   23 ar
  42   22   43 1
  43   23   24 ar
  44   23   26 1
  45   24   25 ar
  46   24   44 1
  47   25   27 1
  48   27   45 1
  49   27   46 1
  50   27   47 1

#	End of record

