#	Name: ASD05720210
#	Creating user name:	WinNT
#	Creation time:	15. 06. 2019 21:02

#	Modifying user name:	WinNT
#	Modification time:	15. 06. 2019 21:02

#	Program:	/corina/corina34_cracker 3.40 0067  02.08.2006

@<TRIPOS>MOLECULE
ASD05720210
  71   76    0    0    0
SMALL
NO_CHARGES


@<TRIPOS>ATOM
   1 O1             0.6297     3.0786     0.6374 O.3     
   2 C2             0.4235     1.7571     0.6552 C.2     
   3 N3             1.5473     1.0319     0.5716 N.am    
   4 C4             2.6973     1.9447     0.4833 C.3     
   5 C5             2.0579     3.3460     0.5292 C.3     
   6 O6            -0.6817     1.2596     0.7401 O.2     
   7 C7             2.8689    -2.2918     0.4783 C.2     
   8 N8             2.7859    -0.9580     0.4824 N.2     
   9 C9             1.6151    -0.3551     0.5693 C.2     
  10 C10            0.4334    -1.1183     0.6601 C.2     
  11 C11            0.5140    -2.4684     0.6567 C.2     
  12 N12            1.7411    -3.0641     0.5651 N.pl3   
  13 N13            2.1351    -4.4066     0.5375 N.2     
  14 C14            3.4399    -4.4730     0.4387 C.2     
  15 C15            3.9564    -3.1720     0.3916 C.2     
  16 C16            5.3828    -2.7970     0.2744 C.ar    
  17 C17            6.3278    -3.3700     1.1283 C.ar    
  18 C18            7.6545    -3.0213     1.0195 C.ar    
  19 C19            8.0562    -2.0944     0.0544 C.ar    
  20 C20            7.1107    -1.5217    -0.8000 C.ar    
  21 C21            5.7848    -1.8743    -0.6940 C.ar    
  22 C22            9.4806    -1.7195    -0.0623 C.2     
  23 N23           10.0406    -1.1344    -1.0985 N.2     
  24 C24           11.3425    -0.9486    -0.8503 C.2     
  25 C25           11.6144    -1.4303     0.3792 C.2     
  26 N26           10.4393    -1.9157     0.8891 N.pl3   
  27 C27           10.2484    -2.5313     2.2047 C.3     
  28 O28           11.4586    -2.4306     2.9578 O.3     
  29 C29           11.3796    -3.0039     4.2644 C.3     
  30 C30           12.7242    -2.8396     4.9756 C.3     
  31 Si31          12.6212    -3.5871     6.6790 Si      
  32 C32           12.2103    -5.3988     6.5383 C.3     
  33 C33           14.2584    -3.3870     7.5451 C.3     
  34 C34           11.2916    -2.7230     7.6570 C.3     
  35 C35            3.4356     1.7420    -0.8147 C.ar    
  36 C36            4.7739     2.0776    -0.8991 C.ar    
  37 C37            5.4439     1.8868    -2.0976 C.ar    
  38 C38            4.7397     1.3631    -3.1713 C.ar    
  39 C39            3.4030     1.0512    -3.0121 C.ar    
  40 N40            2.7990     1.2415    -1.8552 N.ar    
  41 H41            3.3662     1.8011     1.3319 H       
  42 H42            2.2755     3.8954    -0.3867 H       
  43 H43            2.4103     3.8984     1.4002 H       
  44 H44           -0.5271    -0.6297     0.7321 H       
  45 H45           -0.3809    -3.0691     0.7259 H       
  46 H46            4.0215    -5.3820     0.3961 H       
  47 H47            6.0173    -4.0865     1.8744 H       
  48 H48            8.3852    -3.4639     1.6803 H       
  49 H49            7.4210    -0.8051    -1.5460 H       
  50 H50            5.0544    -1.4344    -1.3569 H       
  51 H51           12.0544    -0.4909    -1.5212 H       
  52 H52           12.5760    -1.4294     0.8710 H       
  53 H53            9.4470    -2.0159     2.7342 H       
  54 H54            9.9846    -3.5814     2.0797 H       
  55 H55           10.6017    -2.4983     4.8366 H       
  56 H56           11.1392    -4.0639     4.1821 H       
  57 H57           13.5021    -3.3452     4.4035 H       
  58 H58           12.9646    -1.7796     5.0579 H       
  59 H59           12.9882    -5.9044     5.9661 H       
  60 H60           12.1500    -5.8361     7.5349 H       
  61 H61           11.2524    -5.5158     6.0316 H       
  62 H62           14.4988    -2.3270     7.6274 H       
  63 H63           14.1981    -3.8244     8.5417 H       
  64 H64           15.0363    -3.8926     6.9729 H       
  65 H65           10.3337    -2.8400     7.1502 H       
  66 H66           11.2313    -3.1603     8.6536 H       
  67 H67           11.5320    -1.6630     7.7393 H       
  68 H68            5.2909     2.4837    -0.0422 H       
  69 H69            6.4894     2.1402    -2.1929 H       
  70 H70            5.2297     1.2015    -4.1201 H       
  71 H71            2.8475     0.6430    -3.8435 H       
@<TRIPOS>BOND
   1    1    2 1
   2    1    5 1
   3    2    3 am
   4    2    6 2
   5    3    4 1
   6    3    9 1
   7    4    5 1
   8    4   35 1
   9    4   41 1
  10    5   42 1
  11    5   43 1
  12    7    8 1
  13    7   12 1
  14    7   15 2
  15    8    9 2
  16    9   10 1
  17   10   11 2
  18   10   44 1
  19   11   12 1
  20   11   45 1
  21   12   13 1
  22   13   14 2
  23   14   15 1
  24   14   46 1
  25   15   16 1
  26   16   17 ar
  27   16   21 ar
  28   17   18 ar
  29   17   47 1
  30   18   19 ar
  31   18   48 1
  32   19   20 ar
  33   19   22 1
  34   20   21 ar
  35   20   49 1
  36   21   50 1
  37   22   23 2
  38   22   26 1
  39   23   24 1
  40   24   25 2
  41   24   51 1
  42   25   26 1
  43   25   52 1
  44   26   27 1
  45   27   28 1
  46   27   53 1
  47   27   54 1
  48   28   29 1
  49   29   30 1
  50   29   55 1
  51   29   56 1
  52   30   31 1
  53   30   57 1
  54   30   58 1
  55   31   32 1
  56   31   33 1
  57   31   34 1
  58   32   59 1
  59   32   60 1
  60   32   61 1
  61   33   62 1
  62   33   63 1
  63   33   64 1
  64   34   65 1
  65   34   66 1
  66   34   67 1
  67   35   36 ar
  68   35   40 ar
  69   36   37 ar
  70   36   68 1
  71   37   38 ar
  72   37   69 1
  73   38   39 ar
  74   38   70 1
  75   39   40 ar
  76   39   71 1

#	End of record

