#	Name: ASD08150160
#	Creating user name:	WinNT
#	Creation time:	15. 06. 2019 21:15

#	Modifying user name:	WinNT
#	Modification time:	15. 06. 2019 21:15

#	Program:	/corina/corina34_cracker 3.40 0067  02.08.2006

@<TRIPOS>MOLECULE
ASD08150160
  53   55    0    0    0
SMALL
NO_CHARGES


@<TRIPOS>ATOM
   1 O1             0.9535    -1.0631     1.9632 O.3     
   2 C2             1.4175    -2.2746     1.6371 C.2     
   3 N3             2.6099    -2.2518     1.0261 N.am    
   4 C4             3.0533    -0.8550     0.8995 C.3     
   5 C5             1.9107    -0.0474     1.5450 C.3     
   6 O6             0.8133    -3.3019     1.8738 O.2     
   7 C7             4.3627    -0.6357     1.6599 C.3     
   8 C8             3.2153    -0.4739    -0.5734 C.3     
   9 O9             4.1263    -1.3779    -1.2019 O.3     
  10 Si10           4.3454    -1.0989    -2.7939 Si      
  11 C11            5.1066    -2.6070    -3.5913 C.ar    
  12 C12            4.4755    -3.2171    -4.6591 C.ar    
  13 C13            5.0387    -4.3331    -5.2491 C.ar    
  14 C14            6.2334    -4.8386    -4.7717 C.ar    
  15 C15            6.8651    -4.2280    -3.7044 C.ar    
  16 C16            6.3040    -3.1094    -3.1171 C.ar    
  17 C17            2.6974    -0.7359    -3.5950 C.ar    
  18 C18            1.8653    -1.7755    -3.9661 C.ar    
  19 C19            0.6459    -1.5068    -4.5590 C.ar    
  20 C20            0.2583    -0.1985    -4.7805 C.ar    
  21 C21            1.0900     0.8412    -4.4085 C.ar    
  22 C22            2.3076     0.5726    -3.8117 C.ar    
  23 C23            5.4801     0.3616    -3.0180 C.3     
  24 C24            6.9119    -0.0461    -2.6651 C.3     
  25 C25            5.4271     0.8299    -4.4736 C.3     
  26 C26            5.0330     1.5004    -2.0993 C.3     
  27 H27            3.1007    -3.0295     0.7176 H       
  28 H28            1.4595     0.6259     0.8162 H       
  29 H29            2.2767     0.5107     2.4068 H       
  30 H30            5.1368    -1.2806     1.2440 H       
  31 H31            4.6680     0.4063     1.5648 H       
  32 H32            4.2161    -0.8767     2.7128 H       
  33 H33            2.2473    -0.5288    -1.0715 H       
  34 H34            3.6038     0.5420    -0.6453 H       
  35 H35            3.5421    -2.8221    -5.0321 H       
  36 H36            4.5453    -4.8102    -6.0830 H       
  37 H37            6.6732    -5.7110    -5.2322 H       
  38 H38            7.7983    -4.6232    -3.3312 H       
  39 H39            6.7993    -2.6301    -2.2857 H       
  40 H40            2.1681    -2.7976    -3.7931 H       
  41 H41           -0.0039    -2.3190    -4.8496 H       
  42 H42           -0.6942     0.0114    -5.2443 H       
  43 H43            0.7873     1.8633    -4.5818 H       
  44 H44            2.9558     1.3849    -3.5178 H       
  45 H45            7.2070    -0.9005    -3.2743 H       
  46 H46            7.5856     0.7885    -2.8592 H       
  47 H47            6.9632    -0.3168    -1.6105 H       
  48 H48            4.4364     1.2289    -4.6911 H       
  49 H49            6.1748     1.6070    -4.6327 H       
  50 H50            5.6326    -0.0126    -5.1340 H       
  51 H51            5.2074     1.2192    -1.0607 H       
  52 H52            5.6022     2.4002    -2.3326 H       
  53 H53            3.9708     1.6932    -2.2500 H       
@<TRIPOS>BOND
   1    1    2 1
   2    1    5 1
   3    2    3 am
   4    2    6 2
   5    3    4 1
   6    3   27 1
   7    4    5 1
   8    4    7 1
   9    4    8 1
  10    5   28 1
  11    5   29 1
  12    7   30 1
  13    7   31 1
  14    7   32 1
  15    8    9 1
  16    8   33 1
  17    8   34 1
  18    9   10 1
  19   10   11 1
  20   10   17 1
  21   10   23 1
  22   11   12 ar
  23   11   16 ar
  24   12   13 ar
  25   12   35 1
  26   13   14 ar
  27   13   36 1
  28   14   15 ar
  29   14   37 1
  30   15   16 ar
  31   15   38 1
  32   16   39 1
  33   17   18 ar
  34   17   22 ar
  35   18   19 ar
  36   18   40 1
  37   19   20 ar
  38   19   41 1
  39   20   21 ar
  40   20   42 1
  41   21   22 ar
  42   21   43 1
  43   22   44 1
  44   23   24 1
  45   23   26 1
  46   23   25 1
  47   24   45 1
  48   24   46 1
  49   24   47 1
  50   25   48 1
  51   25   49 1
  52   25   50 1
  53   26   51 1
  54   26   52 1
  55   26   53 1

#	End of record

