#	Name: ASD00070063
#	Creating user name:	WinNT
#	Creation time:	15. 06. 2019 18:30

#	Modifying user name:	WinNT
#	Modification time:	15. 06. 2019 18:30

#	Program:	/corina/corina34_cracker 3.40 0067  02.08.2006

@<TRIPOS>MOLECULE
ASD00070063
  80   85    0    0    0
SMALL
NO_CHARGES


@<TRIPOS>ATOM
   1 C1            -0.0179     1.4712     0.0101 C.2     
   2 C2             0.0021    -0.0041     0.0020 C.ar    
   3 C3             1.2212    -0.6993    -0.0134 C.ar    
   4 C4             1.1924    -2.0676    -0.0205 C.ar    
   5 C5            -0.0364    -2.7258    -0.0123 C.ar    
   6 N6            -1.1741    -2.0448     0.0018 N.ar    
   7 C7            -1.1909    -0.7282     0.0153 C.ar    
   8 O8             1.0267     2.0934     0.0035 O.2     
   9 N9            -1.1942     2.1291     0.0193 N.am    
  10 N10           -0.0694    -4.1099    -0.0195 N.3     
  11 C11           -1.4540    -4.6040    -0.0090 C.3     
  12 C12           -1.4449    -6.1334    -0.0777 C.3     
  13 O13           -0.6774    -6.6500     1.0129 O.3     
  14 C14            0.6765    -6.1897     1.0331 C.3     
  15 C15            0.6889    -4.6609     1.1131 C.3     
  16 C16           -1.2140     3.5940     0.0273 C.3     
  17 C17           -2.5310     4.0895    -0.5734 C.3     
  18 C18           -2.5518     5.6193    -0.5649 C.3     
  19 C19           -2.4262     6.1231     0.8742 C.3     
  20 C20           -1.1092     5.6277     1.4749 C.3     
  21 C21           -1.0884     4.0978     1.4665 C.3     
  22 C22           -2.4470     7.6530     0.8827 C.3     
  23 C23           -2.4470     8.1551     2.3279 C.3     
  24 N24           -2.4670     9.6239     2.3360 N.3     
  25 C25           -2.7057    10.1395     3.6901 C.3     
  26 C26           -2.8648    11.6607     3.6374 C.3     
  27 C27           -1.5939    12.2819     3.0513 C.3     
  28 C28           -1.3414    11.6923     1.6609 C.3     
  29 C29           -1.2265    10.1702     1.7709 C.3     
  30 O30           -0.1296    16.6422     4.2827 O.3     
  31 C31            0.9563    15.7430     4.5636 C.3     
  32 C32            0.2720    14.3560     4.5230 C.3     
  33 C33           -0.9147    14.6191     3.6163 C.ar    
  34 C34           -1.0646    15.9976     3.5321 C.ar    
  35 C35           -1.7677    13.7748     2.9412 C.ar    
  36 C36           -2.7843    14.2977     2.1612 C.ar    
  37 C37           -2.9387    15.6680     2.0635 C.ar    
  38 C38           -2.0871    16.5158     2.7415 C.ar    
  39 H39            2.1607    -0.1667    -0.0198 H       
  40 H40            2.1130    -2.6320    -0.0327 H       
  41 H41           -2.1353    -0.2045     0.0320 H       
  42 H42           -2.0275     1.6328     0.0205 H       
  43 H43           -1.9477    -4.2838     0.9085 H       
  44 H44           -1.9896    -4.2042    -0.8699 H       
  45 H45           -2.4669    -6.5067    -0.0126 H       
  46 H46           -0.9994    -6.4528    -1.0198 H       
  47 H47            1.1888    -6.6038     1.9016 H       
  48 H48            1.1837    -6.5107     0.1233 H       
  49 H49            1.7175    -4.3026     1.0712 H       
  50 H50            0.2294    -4.3416     2.0485 H       
  51 H51           -0.3800     3.9719    -0.5640 H       
  52 H52           -2.6205     3.7305    -1.5987 H       
  53 H53           -3.3650     3.7115     0.0180 H       
  54 H54           -1.7178     5.9972    -1.1563 H       
  55 H55           -3.4901     5.9723    -0.9929 H       
  56 H56           -3.2602     5.7452     1.4656 H       
  57 H57           -0.2752     6.0056     0.8836 H       
  58 H58           -1.0197     5.9866     2.5002 H       
  59 H59           -1.9224     3.7199     2.0579 H       
  60 H60           -0.1501     3.7448     1.8945 H       
  61 H61           -1.5644     8.0312     0.3667 H       
  62 H62           -3.3442     8.0070     0.3750 H       
  63 H63           -3.3296     7.7769     2.8439 H       
  64 H64           -1.5498     7.8011     2.8356 H       
  65 H65           -3.6145     9.6931     4.0937 H       
  66 H66           -1.8609     9.8847     4.3300 H       
  67 H67           -3.7179    11.9159     3.0088 H       
  68 H68           -3.0265    12.0448     4.6446 H       
  69 H69           -0.7470    12.0597     3.7005 H       
  70 H70           -2.1706    11.9479     1.0012 H       
  71 H71           -0.4147    12.0989     1.2560 H       
  72 H72           -0.3887     9.9151     2.4198 H       
  73 H73           -1.0610     9.7460     0.7806 H       
  74 H74            1.7266    15.8161     3.7959 H       
  75 H75            1.3741    15.9387     5.5511 H       
  76 H76            0.9349    13.6070     4.0898 H       
  77 H77           -0.0569    14.0546     5.5175 H       
  78 H78           -3.4544    13.6376     1.6305 H       
  79 H79           -3.7300    16.0772     1.4528 H       
  80 H80           -2.2149    17.5851     2.6599 H       
@<TRIPOS>BOND
   1    1    2 1
   2    1    8 2
   3    1    9 am
   4    2    3 ar
   5    2    7 ar
   6    3    4 ar
   7    3   39 1
   8    4    5 ar
   9    4   40 1
  10    5    6 ar
  11    5   10 1
  12    6    7 ar
  13    7   41 1
  14    9   16 1
  15    9   42 1
  16   10   11 1
  17   10   15 1
  18   11   12 1
  19   11   43 1
  20   11   44 1
  21   12   13 1
  22   12   45 1
  23   12   46 1
  24   13   14 1
  25   14   15 1
  26   14   47 1
  27   14   48 1
  28   15   49 1
  29   15   50 1
  30   16   17 1
  31   16   21 1
  32   16   51 1
  33   17   18 1
  34   17   52 1
  35   17   53 1
  36   18   19 1
  37   18   54 1
  38   18   55 1
  39   19   20 1
  40   19   22 1
  41   19   56 1
  42   20   21 1
  43   20   57 1
  44   20   58 1
  45   21   59 1
  46   21   60 1
  47   22   23 1
  48   22   61 1
  49   22   62 1
  50   23   24 1
  51   23   63 1
  52   23   64 1
  53   24   25 1
  54   24   29 1
  55   25   26 1
  56   25   65 1
  57   25   66 1
  58   26   27 1
  59   26   67 1
  60   26   68 1
  61   27   28 1
  62   27   35 1
  63   27   69 1
  64   28   29 1
  65   28   70 1
  66   28   71 1
  67   29   72 1
  68   29   73 1
  69   30   31 1
  70   30   34 1
  71   31   32 1
  72   31   74 1
  73   31   75 1
  74   32   33 1
  75   32   76 1
  76   32   77 1
  77   33   34 ar
  78   33   35 ar
  79   34   38 ar
  80   35   36 ar
  81   36   37 ar
  82   36   78 1
  83   37   38 ar
  84   37   79 1
  85   38   80 1

#	End of record

