#	Name: ASD01884389
#	Creating user name:	WinNT
#	Creation time:	15. 06. 2019 19:48

#	Modifying user name:	WinNT
#	Modification time:	15. 06. 2019 19:48

#	Program:	/corina/corina34_cracker 3.40 0067  02.08.2006

@<TRIPOS>MOLECULE
ASD01884389
  66   68    0    0    0
SMALL
NO_CHARGES


@<TRIPOS>ATOM
   1 C1             0.5590     1.9688     0.3079 C.2     
   2 C2             0.3749     0.5903     0.2353 C.2     
   3 C3            -0.9239     0.0801     0.2508 C.2     
   4 C4            -1.9853     0.9213     0.3351 C.2     
   5 N5            -1.8139     2.2637     0.4060 N.am    
   6 C6            -0.5821     2.8078     0.4007 C.2     
   7 O7            -0.4478     4.0177     0.4652 O.2     
   8 C8            -2.9871     3.1365     0.4954 C.3     
   9 C9             1.8766     2.5295     0.2952 C.1     
  10 N10            2.9218     2.9744     0.2850 N.1     
  11 N11            1.9183    -0.8109     1.4841 N.3     
  12 C12            2.9099    -1.8932     1.4128 C.3     
  13 C13            3.3150    -2.3044     2.8302 C.3     
  14 N14            2.1220    -2.7352     3.5723 N.3     
  15 C15            1.1304    -1.6530     3.6436 C.3     
  16 C16            0.7253    -1.2417     2.2262 C.3     
  17 C17            2.4804    -3.2101     4.9155 C.3     
  18 C18           -3.3470     3.3581     1.9659 C.3     
  19 C19            1.5598    -0.3360     0.1409 C.3     
  20 C20           -4.5723     4.2696     2.0593 C.3     
  21 C21           -5.7829     3.5609     1.4485 C.3     
  22 C22           -4.8573     4.5922     3.5275 C.3     
  23 N23            1.3127    -3.1037     5.8003 N.3     
  24 C24            0.4545    -4.2903     5.6844 C.3     
  25 C25            1.7257    -2.8867     7.1933 C.3     
  26 C26           -0.8437    -4.0441     6.4090 C.ar    
  27 C27           -1.9157    -3.4881     5.7361 C.ar    
  28 C28           -3.1068    -3.2622     6.3994 C.ar    
  29 C29           -3.2263    -3.5931     7.7386 C.ar    
  30 C30           -2.1520    -4.1499     8.4116 C.ar    
  31 C31           -0.9635    -4.3796     7.7448 C.ar    
  32 F32           -4.3901    -3.3723     8.3882 F       
  33 H33           -1.0847    -0.9864     0.1952 H       
  34 H34           -2.9852     0.5134     0.3454 H       
  35 H35           -2.7631     4.0953     0.0277 H       
  36 H36           -3.8275     2.6693    -0.0179 H       
  37 H37            2.4772    -2.7494     0.8954 H       
  38 H38            3.7888    -1.5459     0.8697 H       
  39 H39            4.0288    -3.1267     2.7803 H       
  40 H40            3.7726    -1.4556     3.3384 H       
  41 H41            0.2514    -2.0003     4.1867 H       
  42 H42            1.5631    -0.7967     4.1610 H       
  43 H43            0.0115    -0.4194     2.2761 H       
  44 H44            0.2677    -2.0905     1.7180 H       
  45 H45            2.8003    -4.2506     4.8596 H       
  46 H46            3.2930    -2.6009     5.3114 H       
  47 H47           -3.5710     2.3993     2.4336 H       
  48 H48           -2.5067     3.8253     2.4793 H       
  49 H49            1.3057    -1.1879    -0.4898 H       
  50 H50            2.4050     0.1982    -0.2931 H       
  51 H51           -4.3797     5.1941     1.5149 H       
  52 H52           -6.6558     4.2103     1.5150 H       
  53 H53           -5.5799     3.3311     0.4025 H       
  54 H54           -5.9755     2.6364     1.9929 H       
  55 H55           -3.9948     5.0971     3.9625 H       
  56 H56           -5.7302     5.2416     3.5940 H       
  57 H57           -5.0499     3.6677     4.0718 H       
  58 H58            0.2511    -4.4902     4.6324 H       
  59 H59            0.9601    -5.1489     6.1263 H       
  60 H60            2.3914    -2.0252     7.2448 H       
  61 H61            0.8451    -2.7029     7.8089 H       
  62 H62            2.2469    -3.7711     7.5596 H       
  63 H63           -1.8221    -3.2298     4.6916 H       
  64 H64           -3.9440    -2.8275     5.8736 H       
  65 H65           -2.2441    -4.4083     9.4562 H       
  66 H66           -0.1254    -4.8139     8.2695 H       
@<TRIPOS>BOND
   1    1    2 2
   2    1    9 1
   3    1    6 1
   4    2    3 1
   5    2   19 1
   6    3    4 2
   7    3   33 1
   8    4    5 1
   9    4   34 1
  10    5    6 am
  11    5    8 1
  12    6    7 2
  13    8   18 1
  14    8   35 1
  15    8   36 1
  16    9   10 3
  17   11   12 1
  18   11   16 1
  19   11   19 1
  20   12   13 1
  21   12   37 1
  22   12   38 1
  23   13   14 1
  24   13   39 1
  25   13   40 1
  26   14   15 1
  27   14   17 1
  28   15   16 1
  29   15   41 1
  30   15   42 1
  31   16   43 1
  32   16   44 1
  33   17   23 1
  34   17   45 1
  35   17   46 1
  36   18   20 1
  37   18   47 1
  38   18   48 1
  39   19   49 1
  40   19   50 1
  41   20   21 1
  42   20   22 1
  43   20   51 1
  44   21   52 1
  45   21   53 1
  46   21   54 1
  47   22   55 1
  48   22   56 1
  49   22   57 1
  50   23   24 1
  51   23   25 1
  52   24   26 1
  53   24   58 1
  54   24   59 1
  55   25   60 1
  56   25   61 1
  57   25   62 1
  58   26   27 ar
  59   26   31 ar
  60   27   28 ar
  61   27   63 1
  62   28   29 ar
  63   28   64 1
  64   29   30 ar
  65   29   32 1
  66   30   31 ar
  67   30   65 1
  68   31   66 1

#	End of record

