#	Name: ASD01884520
#	Creating user name:	WinNT
#	Creation time:	15. 06. 2019 19:48

#	Modifying user name:	WinNT
#	Modification time:	15. 06. 2019 19:48

#	Program:	/corina/corina34_cracker 3.40 0067  02.08.2006

@<TRIPOS>MOLECULE
ASD01884520
  48   50    0    0    0
SMALL
NO_CHARGES


@<TRIPOS>ATOM
   1 C1            -0.0168     1.3884     0.0097 C.2     
   2 C2             0.0021    -0.0041     0.0020 C.2     
   3 C3            -1.2095    -0.6965     0.0104 C.2     
   4 C4            -2.3831    -0.0157     0.0252 C.2     
   5 N5            -2.4093     1.3392     0.0327 N.am    
   6 C6            -1.2693     2.0558     0.0312 C.2     
   7 O7            -1.3129     3.2741     0.0383 O.2     
   8 C8            -3.6983     2.0352     0.0483 C.3     
   9 C9            -4.1273     2.2662     1.4744 C.ar    
  10 C10           -3.7545     3.4263     2.1279 C.ar    
  11 C11           -4.1464     3.6404     3.4352 C.ar    
  12 C12           -4.9147     2.6903     4.0923 C.ar    
  13 C13           -5.2875     1.5272     3.4343 C.ar    
  14 C14           -4.8977     1.3204     2.1252 C.ar    
  15 C15            1.2059     2.1337     0.0020 C.1     
  16 N16            2.1759     2.7249    -0.0041 N.1     
  17 C17            1.3105    -0.7515    -0.0155 C.3     
  18 N18            1.6901    -1.1066     1.3585 N.3     
  19 C19            2.8290    -2.0352     1.3670 C.3     
  20 C20            3.2431    -2.3172     2.8131 C.3     
  21 N21            2.1012    -2.8822     3.5456 N.3     
  22 C22            0.9623    -1.9536     3.5371 C.3     
  23 C23            0.5482    -1.6716     2.0910 C.3     
  24 O24            2.4792    -3.2358     4.9140 O.3     
  25 O25           -5.3012     2.8985     5.3784 O.3     
  26 C26           -6.0908     1.8776     5.9919 C.3     
  27 F27           -5.3726     0.6771     6.0047 F       
  28 F28           -6.3981     2.2513     7.3045 F       
  29 F29           -7.2748     1.7050     5.2669 F       
  30 H30           -1.2130    -1.7765     0.0046 H       
  31 H31           -3.3137    -0.5638     0.0308 H       
  32 H32           -3.5999     2.9937    -0.4613 H       
  33 H33           -4.4456     1.4275    -0.4619 H       
  34 H34           -3.1561     4.1654     1.6161 H       
  35 H35           -3.8547     4.5465     3.9453 H       
  36 H36           -5.8856     0.7861     3.9437 H       
  37 H37           -5.1876     0.4151     1.6125 H       
  38 H38            1.2023    -1.6595    -0.6087 H       
  39 H39            2.0835    -0.1207    -0.4544 H       
  40 H40            2.5411    -2.9683     0.8826 H       
  41 H41            3.6659    -1.5892     0.8295 H       
  42 H42            4.0692    -3.0283     2.8228 H       
  43 H43            3.5569    -1.3883     3.2893 H       
  44 H44            0.1254    -2.3996     4.0746 H       
  45 H45            1.2502    -1.0205     4.0215 H       
  46 H46           -0.2779    -0.9605     2.0813 H       
  47 H47            0.2344    -2.6005     1.6148 H       
  48 H48            1.7580    -3.6127     5.4363 H       
@<TRIPOS>BOND
   1    1    2 2
   2    1   15 1
   3    1    6 1
   4    2    3 1
   5    2   17 1
   6    3    4 2
   7    3   30 1
   8    4    5 1
   9    4   31 1
  10    5    8 1
  11    5    6 am
  12    6    7 2
  13    8    9 1
  14    8   32 1
  15    8   33 1
  16    9   10 ar
  17    9   14 ar
  18   10   11 ar
  19   10   34 1
  20   11   12 ar
  21   11   35 1
  22   12   25 1
  23   12   13 ar
  24   13   14 ar
  25   13   36 1
  26   14   37 1
  27   15   16 3
  28   17   18 1
  29   17   38 1
  30   17   39 1
  31   18   19 1
  32   18   23 1
  33   19   20 1
  34   19   40 1
  35   19   41 1
  36   20   21 1
  37   20   42 1
  38   20   43 1
  39   21   22 1
  40   21   24 1
  41   22   23 1
  42   22   44 1
  43   22   45 1
  44   23   46 1
  45   23   47 1
  46   24   48 1
  47   25   26 1
  48   26   27 1
  49   26   28 1
  50   26   29 1

#	End of record

