#	Name: ASD01883744
#	Creating user name:	WinNT
#	Creation time:	15. 06. 2019 19:47

#	Modifying user name:	WinNT
#	Modification time:	15. 06. 2019 19:47

#	Program:	/corina/corina34_cracker 3.40 0067  02.08.2006

@<TRIPOS>MOLECULE
ASD01883744
  51   54    0    0    0
SMALL
NO_CHARGES


@<TRIPOS>ATOM
   1 C1            -1.3094    -0.9608    -0.1526 C.2     
   2 C2            -0.1233    -0.2620     0.0063 C.2     
   3 C3            -0.1734     1.1379     0.1776 C.2     
   4 C4            -1.3654     1.7700     0.1842 C.2     
   5 N5            -2.5246     1.0766     0.0276 N.am    
   6 C6            -2.5190    -0.2583    -0.1438 C.2     
   7 C7            -3.8010     1.7956     0.0398 C.3     
   8 C8            -4.1002     2.3274    -1.3632 C.3     
   9 O9            -3.5735    -0.8592    -0.2824 O.2     
  10 Cl10          -1.2939    -2.6834    -0.3668 Cl      
  11 N11            1.0909    -0.9264    -0.0025 N.pl3   
  12 C12            1.3370    -2.3726     0.2041 C.3     
  13 C13            2.6202    -2.4311     1.0606 C.3     
  14 C14            3.3469    -1.0992     0.7807 C.3     
  15 C15            2.4386    -0.3537    -0.2270 C.3     
  16 C16            2.7874    -1.3947     2.1737 C.3     
  17 C17           -5.4886     2.9700    -1.3796 C.3     
  18 C18           -5.7879     3.5018    -2.7827 C.3     
  19 H19            3.1559    -3.3792     1.1079 H       
  20 H20            4.4236    -1.0556     0.6163 H       
  21 C21            1.5411    -0.6226     2.6113 C.3     
  22 O22            1.8557     0.1855     3.7470 O.3     
  23 C23            0.8262     0.8489     4.3367 C.ar    
  24 C24            1.0422     1.5740     5.5005 C.ar    
  25 C25           -0.0064     2.2483     6.0982 C.ar    
  26 C26           -1.2692     2.2009     5.5379 C.ar    
  27 C27           -1.4870     1.4786     4.3776 C.ar    
  28 C28           -0.4404     0.8070     3.7733 C.ar    
  29 Cl29           2.6276     1.6337     6.2053 Cl      
  30 Cl30          -3.0743     1.4214     3.6768 Cl      
  31 H31            0.7393     1.7014     0.3034 H       
  32 H32           -1.3994     2.8414     0.3159 H       
  33 H33           -4.5968     1.1179     0.3489 H       
  34 H34           -3.7416     2.6294     0.7394 H       
  35 H35           -3.3522     3.0715    -1.6369 H       
  36 H36           -4.0723     1.5044    -2.0773 H       
  37 H37            0.5027    -2.8277     0.7378 H       
  38 H38            1.4952    -2.8716    -0.7520 H       
  39 H39            2.7718    -0.5388    -1.2481 H       
  40 H40            2.4341     0.7156    -0.0156 H       
  41 H41            3.5025    -1.6185     2.9652 H       
  42 H42           -6.2367     2.2259    -1.1059 H       
  43 H43           -5.5166     3.7930    -0.6655 H       
  44 H44           -5.0399     4.2459    -3.0564 H       
  45 H45           -5.7600     2.6788    -3.4968 H       
  46 H46           -6.7770     3.9596    -2.7944 H       
  47 H47            1.2030     0.0148     1.7942 H       
  48 H48            0.7512    -1.3264     2.8737 H       
  49 H49            0.1611     2.8123     7.0039 H       
  50 H50           -2.0871     2.7280     6.0064 H       
  51 H51           -0.6108     0.2437     2.8677 H       
@<TRIPOS>BOND
   1    1    2 2
   2    1   10 1
   3    1    6 1
   4    2    3 1
   5    2   11 1
   6    3    4 2
   7    3   31 1
   8    4    5 1
   9    4   32 1
  10    5    6 am
  11    5    7 1
  12    6    9 2
  13    7    8 1
  14    7   33 1
  15    7   34 1
  16    8   17 1
  17    8   35 1
  18    8   36 1
  19   11   12 1
  20   11   15 1
  21   12   13 1
  22   12   37 1
  23   12   38 1
  24   13   14 1
  25   13   19 1
  26   13   16 1
  27   14   15 1
  28   14   20 1
  29   14   16 1
  30   15   39 1
  31   15   40 1
  32   16   21 1
  33   16   41 1
  34   17   18 1
  35   17   42 1
  36   17   43 1
  37   18   44 1
  38   18   45 1
  39   18   46 1
  40   21   22 1
  41   21   47 1
  42   21   48 1
  43   22   23 1
  44   23   24 ar
  45   23   28 ar
  46   24   25 ar
  47   24   29 1
  48   25   26 ar
  49   25   49 1
  50   26   27 ar
  51   26   50 1
  52   27   28 ar
  53   27   30 1
  54   28   51 1

#	End of record

