#	Name: ASD03320153
#	Creating user name:	WinNT
#	Creation time:	15. 06. 2019 20:36

#	Modifying user name:	WinNT
#	Modification time:	15. 06. 2019 20:36

#	Program:	/corina/corina34_cracker 3.40 0067  02.08.2006

@<TRIPOS>MOLECULE
ASD03320153
  32   33    0    0    0
SMALL
NO_CHARGES


@<TRIPOS>ATOM
   1 C1            -0.1749     1.4740    -0.5686 C.2     
   2 C2            -0.1527    -0.0034    -0.5721 C.ar    
   3 C3             0.8982    -0.6981    -1.1848 C.ar    
   4 C4             0.8723    -2.0810    -1.1607 C.ar    
   5 C5            -0.1831    -2.7285    -0.5368 C.ar    
   6 N6            -1.1596    -2.0461     0.0323 N.ar    
   7 C7            -1.1752    -0.7293     0.0398 C.ar    
   8 O8             0.7237     2.0968    -1.1003 O.2     
   9 N9            -1.1942     2.1313     0.0193 N.am    
  10 C10           -1.1618     3.5277     0.1194 C.ar    
  11 C11           -2.3383     4.2587     0.0198 C.ar    
  12 C12           -2.3056     5.6356     0.1186 C.ar    
  13 C13           -1.0978     6.2887     0.3169 C.ar    
  14 C14            0.0778     5.5591     0.4165 C.ar    
  15 C15            0.0459     4.1817     0.3241 C.ar    
  16 O16           -1.0663     7.6446     0.4131 O.3     
  17 C17            0.2115     8.2510     0.6172 C.3     
  18 C18            0.0478     9.7700     0.6997 C.3     
  19 F19            0.7678     7.7764     1.8099 F       
  20 F20            1.0558     7.9303    -0.4512 F       
  21 Cl21          -0.2214    -4.4637    -0.5038 Cl      
  22 Br22           2.2606    -3.0773    -1.9704 Br      
  23 H23            1.7078    -0.1676    -1.6640 H       
  24 H24           -1.9891    -0.2065     0.5202 H       
  25 H25           -1.9502     1.6371     0.3730 H       
  26 H26           -3.2785     3.7505    -0.1353 H       
  27 H27           -3.2204     6.2043     0.0411 H       
  28 H28            1.0178     6.0682     0.5705 H       
  29 H29            0.9607     3.6135     0.4062 H       
  30 H30           -0.6100    10.0198     1.5321 H       
  31 H31            1.0225    10.2325     0.8553 H       
  32 H32           -0.3856    10.1397    -0.2296 H       
@<TRIPOS>BOND
   1    1    2 1
   2    1    8 2
   3    1    9 am
   4    2    3 ar
   5    2    7 ar
   6    3    4 ar
   7    3   23 1
   8    4    5 ar
   9    4   22 1
  10    5    6 ar
  11    5   21 1
  12    6    7 ar
  13    7   24 1
  14    9   10 1
  15    9   25 1
  16   10   11 ar
  17   10   15 ar
  18   11   12 ar
  19   11   26 1
  20   12   13 ar
  21   12   27 1
  22   13   14 ar
  23   13   16 1
  24   14   15 ar
  25   14   28 1
  26   15   29 1
  27   16   17 1
  28   17   18 1
  29   17   19 1
  30   17   20 1
  31   18   30 1
  32   18   31 1
  33   18   32 1

#	End of record

