#	Name: ASD01882259
#	Creating user name:	WinNT
#	Creation time:	15. 06. 2019 19:44

#	Modifying user name:	WinNT
#	Modification time:	15. 06. 2019 19:44

#	Program:	/corina/corina34_cracker 3.40 0067  02.08.2006

@<TRIPOS>MOLECULE
ASD01882259
  54   57    0    0    0
SMALL
NO_CHARGES


@<TRIPOS>ATOM
   1 C1            -0.0169     1.3984     0.0097 C.2     
   2 C2             0.0021    -0.0041     0.0020 C.2     
   3 C3            -1.2223    -0.7047     0.0099 C.2     
   4 C4            -2.3969    -0.0475     0.0246 C.2     
   5 N5            -2.4615     1.3157     0.0325 N.pl3   
   6 C6            -1.3172     2.0717     0.0319 C.2     
   7 C7            -3.5157     2.1918     0.0473 C.2     
   8 C8            -2.9979     3.4382     0.0490 C.2     
   9 N9            -1.6639     3.3462     0.0405 N.2     
  10 C10            1.2855    -0.7368    -0.0146 C.ar    
  11 C11           -4.9788     1.8308     0.0592 C.3     
  12 C12            1.6507    -1.5331     1.0730 C.ar    
  13 C13            2.8473    -2.2155     1.0549 C.ar    
  14 C14            3.6922    -2.1119    -0.0448 C.ar    
  15 C15            3.3317    -1.3185    -1.1309 C.ar    
  16 C16            2.1332    -0.6387    -1.1210 C.ar    
  17 N17            4.9027    -2.8034    -0.0598 N.pl3   
  18 C18            5.2836    -3.6381     1.0823 C.3     
  19 C19            6.2542    -4.7258     0.6178 C.3     
  20 C20            5.9607    -2.7703     2.1450 C.3     
  21 C21            6.3586    -3.6421     3.3377 C.3     
  22 C22            7.3291    -4.7298     2.8732 C.3     
  23 C23            6.6520    -5.5976     1.8105 C.3     
  24 C24            7.7270    -5.6015     4.0659 C.3     
  25 O25            8.4966    -4.1209     2.3178 O.3     
  26 Cl26           4.3896    -1.1915    -2.5014 Cl      
  27 C27           -5.5177     1.8384    -1.3727 C.3     
  28 F28           -4.8135     0.9052    -2.1410 F       
  29 F29           -6.8760     1.5034    -1.3615 F       
  30 F30           -5.3565     3.1137    -1.9248 F       
  31 C31            1.2014     2.1509     0.0021 C.1     
  32 N32            2.1678     2.7479    -0.0039 N.1     
  33 H33           -1.2171    -1.7847     0.0037 H       
  34 H34           -3.3154    -0.6157     0.0299 H       
  35 H35           -3.5661     4.3566     0.0590 H       
  36 H36           -5.1044     0.8372     0.4895 H       
  37 H37           -5.5275     2.5580     0.6578 H       
  38 H38            0.9956    -1.6137     1.9279 H       
  39 H39            3.1298    -2.8314     1.8959 H       
  40 H40            1.8536    -0.0236    -1.9635 H       
  41 H41            5.4927    -2.7318    -0.8264 H       
  42 H42            4.3931    -4.1025     1.5059 H       
  43 H43            5.7718    -5.3440    -0.1393 H       
  44 H44            7.1446    -4.2613     0.1942 H       
  45 H45            6.8512    -2.3058     1.7214 H       
  46 H46            5.2693    -1.9954     2.4759 H       
  47 H47            6.8410    -3.0238     4.0948 H       
  48 H48            5.4681    -4.1065     3.7613 H       
  49 H49            5.7615    -6.0620     2.2341 H       
  50 H50            7.3435    -6.3725     1.4796 H       
  51 H51            6.8365    -6.0660     4.4895 H       
  52 H52            8.4184    -6.3764     3.7350 H       
  53 H53            8.2094    -4.9833     4.8230 H       
  54 H54            9.1571    -4.7525     2.0019 H       
@<TRIPOS>BOND
   1    1    2 2
   2    1   31 1
   3    1    6 1
   4    2    3 1
   5    2   10 1
   6    3    4 2
   7    3   33 1
   8    4    5 1
   9    4   34 1
  10    5    6 1
  11    5    7 1
  12    6    9 2
  13    7    8 2
  14    7   11 1
  15    8    9 1
  16    8   35 1
  17   10   12 ar
  18   10   16 ar
  19   11   27 1
  20   11   36 1
  21   11   37 1
  22   12   13 ar
  23   12   38 1
  24   13   14 ar
  25   13   39 1
  26   14   15 ar
  27   14   17 1
  28   15   16 ar
  29   15   26 1
  30   16   40 1
  31   17   18 1
  32   17   41 1
  33   18   19 1
  34   18   20 1
  35   18   42 1
  36   19   23 1
  37   19   43 1
  38   19   44 1
  39   20   21 1
  40   20   45 1
  41   20   46 1
  42   21   22 1
  43   21   47 1
  44   21   48 1
  45   22   23 1
  46   22   24 1
  47   22   25 1
  48   23   49 1
  49   23   50 1
  50   24   51 1
  51   24   52 1
  52   24   53 1
  53   25   54 1
  54   27   28 1
  55   27   29 1
  56   27   30 1
  57   31   32 3

#	End of record

