#	Name: ASD03331600
#	Creating user name:	WinNT
#	Creation time:	15. 06. 2019 20:39

#	Modifying user name:	WinNT
#	Modification time:	15. 06. 2019 20:39

#	Program:	/corina/corina34_cracker 3.40 0067  02.08.2006

@<TRIPOS>MOLECULE
ASD03331600
  63   65    0    0    0
SMALL
NO_CHARGES


@<TRIPOS>ATOM
   1 C1            -0.9500     0.2012     1.9710 C.ar    
   2 C2            -0.4511    -1.1072     1.4950 C.2     
   3 N3            -1.2084    -2.2143     1.2703 N.pl3   
   4 C4            -0.3827    -3.1988     0.8425 C.2     
   5 C5             0.8746    -2.6879     0.8099 C.2     
   6 N6             0.7998    -1.3973     1.2111 N.2     
   7 C7             2.0966    -3.4054     0.4058 C.2     
   8 N8             3.2862    -2.7720     0.4209 N.am    
   9 C9            -2.6660    -2.3693     1.4454 C.3     
  10 C10           -2.8742    -3.4094     2.5582 C.3     
  11 C11           -2.6979    -4.8104     2.0256 C.3     
  12 N12           -1.3463    -5.2235     1.7126 N.3     
  13 C13           -0.8319    -4.6016     0.4772 C.3     
  14 C14           -0.5233     1.3807     1.3558 C.ar    
  15 C15           -0.9935     2.6005     1.8057 C.ar    
  16 C16           -1.8835     2.6546     2.8621 C.ar    
  17 C17           -2.3106     1.4881     3.4767 C.ar    
  18 C18           -1.8532     0.2625     3.0327 C.ar    
  19 O19            2.0318    -4.5692     0.0585 O.2     
  20 C20            4.5010    -3.4853     0.0191 C.3     
  21 C21           -1.2452    -6.6875     1.6465 C.3     
  22 C22           -3.2617    -5.7845     3.0620 C.3     
  23 C23            4.6512    -3.4199    -1.5021 C.3     
  24 C24            5.6990    -2.8434     0.6702 C.2     
  25 C25            4.7400    -1.9577    -1.9435 C.3     
  26 C26            5.9247    -4.1573    -1.9210 C.3     
  27 C27            3.4392    -4.0795    -2.1630 C.3     
  28 N28            6.8717    -3.5054     0.7250 N.am    
  29 O29            5.6079    -1.7310     1.1449 O.2     
  30 C30            8.0060    -2.9274     1.4499 C.3     
  31 F31            0.3471     1.3294     0.3239 F       
  32 F32           -3.1805     1.5494     4.5085 F       
  33 H33            3.3379    -1.8438     0.6979 H       
  34 H34           -3.1091    -1.4173     1.7380 H       
  35 H35           -3.1171    -2.7214     0.5176 H       
  36 H36           -2.1488    -3.2342     3.3527 H       
  37 H37           -3.8806    -3.3042     2.9633 H       
  38 H38           -3.2968    -4.9041     1.1197 H       
  39 H39           -1.6213    -4.5559    -0.2730 H       
  40 H40            0.0127    -5.1753     0.0956 H       
  41 H41           -0.6644     3.5131     1.3310 H       
  42 H42           -2.2473     3.6100     3.2103 H       
  43 H43           -2.1870    -0.6458     3.5122 H       
  44 H44            4.4315    -4.5268     0.3330 H       
  45 H45           -1.9935    -7.0725     0.9537 H       
  46 H46           -0.2506    -6.9678     1.2996 H       
  47 H47           -1.4166    -7.1086     2.6372 H       
  48 H48           -4.2839    -5.4991     3.3105 H       
  49 H49           -3.2558    -6.7945     2.6523 H       
  50 H50           -2.6470    -5.7537     3.9616 H       
  51 H51            5.6035    -1.4878    -1.4726 H       
  52 H52            4.8470    -1.9112    -3.0272 H       
  53 H53            3.8328    -1.4324    -1.6451 H       
  54 H54            5.8410    -5.2098    -1.6499 H       
  55 H55            6.0575    -4.0693    -2.9993 H       
  56 H56            6.7829    -3.7182    -1.4122 H       
  57 H57            2.5320    -3.5542    -1.8646 H       
  58 H58            3.5462    -4.0330    -3.2468 H       
  59 H59            3.3760    -5.1212    -1.8486 H       
  60 H60            6.9647    -4.3645     0.2844 H       
  61 H61            8.8604    -3.6010     1.3843 H       
  62 H62            8.2670    -1.9654     1.0088 H       
  63 H63            7.7345    -2.7857     2.4960 H       
@<TRIPOS>BOND
   1    1    2 1
   2    1   14 ar
   3    1   18 ar
   4    2    3 1
   5    2    6 2
   6    3    4 1
   7    3    9 1
   8    4    5 2
   9    4   13 1
  10    5    6 1
  11    5    7 1
  12    7    8 am
  13    7   19 2
  14    8   20 1
  15    8   33 1
  16    9   10 1
  17    9   34 1
  18    9   35 1
  19   10   11 1
  20   10   36 1
  21   10   37 1
  22   11   12 1
  23   11   22 1
  24   11   38 1
  25   12   13 1
  26   12   21 1
  27   13   39 1
  28   13   40 1
  29   14   15 ar
  30   14   31 1
  31   15   16 ar
  32   15   41 1
  33   16   17 ar
  34   16   42 1
  35   17   18 ar
  36   17   32 1
  37   18   43 1
  38   20   23 1
  39   20   24 1
  40   20   44 1
  41   21   45 1
  42   21   46 1
  43   21   47 1
  44   22   48 1
  45   22   49 1
  46   22   50 1
  47   23   25 1
  48   23   26 1
  49   23   27 1
  50   24   28 am
  51   24   29 2
  52   25   51 1
  53   25   52 1
  54   25   53 1
  55   26   54 1
  56   26   55 1
  57   26   56 1
  58   27   57 1
  59   27   58 1
  60   27   59 1
  61   28   30 1
  62   28   60 1
  63   30   61 1
  64   30   62 1
  65   30   63 1

#	End of record

