#	Name: ASD03490119
#	Creating user name:	WinNT
#	Creation time:	15. 06. 2019 20:42

#	Modifying user name:	WinNT
#	Modification time:	15. 06. 2019 20:42

#	Program:	/corina/corina34_cracker 3.40 0067  02.08.2006

@<TRIPOS>MOLECULE
ASD03490119
  80   85    0    0    0
SMALL
NO_CHARGES


@<TRIPOS>ATOM
   1 C1            -1.2016     1.0317     0.5186 C.3     
   2 O2            -0.5931    -0.2339     0.2539 O.3     
   3 C3             0.0457    -0.8396     1.2886 C.ar    
   4 C4             0.0806    -0.2255     2.5206 C.ar    
   5 C5             0.7399    -0.8522     3.5855 C.ar    
   6 N6             0.8021    -0.2961     4.8053 N.ar    
   7 C7             1.4267    -0.9074     5.7838 C.ar    
   8 N8             2.0204    -2.0808     5.6365 N.ar    
   9 C9             2.0187    -2.7175     4.4724 C.ar    
  10 N10            2.6418    -3.9416     4.3333 N.pl3   
  11 C11            3.3911    -4.4684     5.3891 C.ar    
  12 C12            4.0897    -3.6200     6.2362 C.ar    
  13 C13            4.8320    -4.1472     7.2836 C.ar    
  14 N14            5.5370    -3.2957     8.1399 N.am    
  15 C15            5.6486    -3.5976     9.4487 C.2     
  16 O16            5.1994    -4.6447     9.8712 O.2     
  17 C17            6.3187    -2.6529    10.3721 C.ar    
  18 C18            6.8428    -1.4416     9.9054 C.ar    
  19 C19            7.4595    -0.5877    10.7967 C.ar    
  20 N20            7.5609    -0.8972    12.0747 N.ar    
  21 C21            7.0806    -2.0305    12.5611 C.ar    
  22 C22            6.4393    -2.9442    11.7317 C.ar    
  23 N23            7.2144    -2.3085    13.9167 N.3     
  24 C24            7.9133    -1.2177    14.6117 C.3     
  25 C25            7.9858    -1.5365    16.1074 C.3     
  26 O26            8.6344    -2.7980    16.2899 O.3     
  27 C27            7.9799    -3.8831    15.6269 C.3     
  28 C28            7.9073    -3.5880    14.1263 C.3     
  29 C29            4.8735    -5.5219     7.4808 C.ar    
  30 C30            4.1771    -6.3640     6.6351 C.ar    
  31 C31            3.4326    -5.8423     5.5951 C.ar    
  32 C32            2.6693    -6.7641     4.6794 C.3     
  33 C33            1.3608    -2.1089     3.3778 C.ar    
  34 C34            1.3106    -2.7120     2.1149 C.ar    
  35 C35            0.6574    -2.0859     1.0919 C.ar    
  36 O36            0.6042    -2.6753    -0.1324 O.3     
  37 C37            1.2461    -3.9445    -0.2699 C.3     
  38 C38            1.0817    -4.4463    -1.7059 C.3     
  39 N39            1.7959    -3.5483    -2.6232 N.3     
  40 C40            1.8626    -4.1225    -3.9795 C.3     
  41 C41            1.2267    -3.0973    -4.9418 C.3     
  42 C42            1.3500    -1.7622    -4.1614 C.3     
  43 C43            1.1286    -2.2313    -2.7018 C.3     
  44 H44           -0.4404     1.7392     0.8473 H       
  45 H45           -1.6757     1.4039    -0.3896 H       
  46 H46           -1.9530     0.9172     1.3000 H       
  47 H47           -0.3965     0.7326     2.6645 H       
  48 H48            1.4580    -0.4315     6.7528 H       
  49 H49            2.5597    -4.4360     3.5028 H       
  50 H50            4.0561    -2.5518     6.0806 H       
  51 H51            5.9458    -2.4878     7.7920 H       
  52 H52            6.7656    -1.1790     8.8606 H       
  53 H53            7.8656     0.3482    10.4423 H       
  54 H54            6.0444    -3.8661    12.1324 H       
  55 H55            8.9222    -1.1185    14.2114 H       
  56 H56            7.3692    -0.2847    14.4644 H       
  57 H57            8.5529    -0.7584    16.6183 H       
  58 H58            6.9776    -1.5827    16.5190 H       
  59 H59            8.5427    -4.8021    15.7903 H       
  60 H60            6.9715    -3.9975    16.0245 H       
  61 H61            7.3589    -4.3854    13.6247 H       
  62 H62            8.9162    -3.5267    13.7182 H       
  63 H63            5.4510    -5.9327     8.2957 H       
  64 H64            4.2113    -7.4323     6.7904 H       
  65 H65            3.3053    -7.0539     3.8429 H       
  66 H66            2.3658    -7.6542     5.2304 H       
  67 H67            1.7846    -6.2510     4.3023 H       
  68 H68            1.7823    -3.6698     1.9519 H       
  69 H69            2.3067    -3.8421    -0.0400 H       
  70 H70            0.7924    -4.6576     0.4184 H       
  71 H71            1.4932    -5.4523    -1.7886 H       
  72 H72            0.0233    -4.4642    -1.9656 H       
  73 H73            2.9020    -4.2969    -4.2576 H       
  74 H74            1.3053    -5.0586    -4.0138 H       
  75 H75            1.7839    -3.0498    -5.8774 H       
  76 H76            0.1804    -3.3402    -5.1271 H       
  77 H77            2.3418    -1.3275    -4.2857 H       
  78 H78            0.5758    -1.0583    -4.4670 H       
  79 H79            0.0635    -2.3325    -2.4932 H       
  80 H80            1.5879    -1.5309    -2.0043 H       
@<TRIPOS>BOND
   1    1    2 1
   2    1   44 1
   3    1   45 1
   4    1   46 1
   5    2    3 1
   6    3    4 ar
   7    3   35 ar
   8    4    5 ar
   9    4   47 1
  10    5    6 ar
  11    5   33 ar
  12    6    7 ar
  13    7    8 ar
  14    7   48 1
  15    8    9 ar
  16    9   10 1
  17    9   33 ar
  18   10   11 1
  19   10   49 1
  20   11   12 ar
  21   11   31 ar
  22   12   13 ar
  23   12   50 1
  24   13   14 1
  25   13   29 ar
  26   14   15 am
  27   14   51 1
  28   15   16 2
  29   15   17 1
  30   17   18 ar
  31   17   22 ar
  32   18   19 ar
  33   18   52 1
  34   19   20 ar
  35   19   53 1
  36   20   21 ar
  37   21   22 ar
  38   21   23 1
  39   22   54 1
  40   23   24 1
  41   23   28 1
  42   24   25 1
  43   24   55 1
  44   24   56 1
  45   25   26 1
  46   25   57 1
  47   25   58 1
  48   26   27 1
  49   27   28 1
  50   27   59 1
  51   27   60 1
  52   28   61 1
  53   28   62 1
  54   29   30 ar
  55   29   63 1
  56   30   31 ar
  57   30   64 1
  58   31   32 1
  59   32   65 1
  60   32   66 1
  61   32   67 1
  62   33   34 ar
  63   34   35 ar
  64   34   68 1
  65   35   36 1
  66   36   37 1
  67   37   38 1
  68   37   69 1
  69   37   70 1
  70   38   39 1
  71   38   71 1
  72   38   72 1
  73   39   40 1
  74   39   43 1
  75   40   41 1
  76   40   73 1
  77   40   74 1
  78   41   42 1
  79   41   75 1
  80   41   76 1
  81   42   43 1
  82   42   77 1
  83   42   78 1
  84   43   79 1
  85   43   80 1

#	End of record

