#	Name: ASD01814098
#	Creating user name:	WinNT
#	Creation time:	15. 06. 2019 19:31

#	Modifying user name:	WinNT
#	Modification time:	15. 06. 2019 19:31

#	Program:	/corina/corina34_cracker 3.40 0067  02.08.2006

@<TRIPOS>MOLECULE
ASD01814098
  44   47    0    0    0
SMALL
NO_CHARGES


@<TRIPOS>ATOM
   1 C1             1.1587     2.2496    -0.5154 C.ar    
   2 C2             0.7821     0.9154    -0.5000 C.ar    
   3 C3             1.7239    -0.0818    -0.3474 C.ar    
   4 C4             3.0708     0.2475    -0.2070 C.ar    
   5 C5             3.4511     1.6003    -0.2232 C.ar    
   6 C6             2.4870     2.5996    -0.3781 C.ar    
   7 N7             4.0209    -0.7400    -0.0528 N.pl3   
   8 C8             5.3261    -0.4753     0.0867 C.2     
   9 C9             5.8190     0.8139     0.0867 C.2     
  10 C10            4.8784     1.9350    -0.0738 C.2     
  11 O11            5.2637     3.0911    -0.0809 O.2     
  12 C12            7.2587     1.0633     0.2435 C.2     
  13 O13            7.7280     2.3270     0.2419 O.3     
  14 O14            8.0265     0.1299     0.3746 O.2     
  15 C15            3.5837    -2.1382    -0.0406 C.3     
  16 C16            3.4403    -2.6321    -1.4571 C.ar    
  17 C17            4.5224    -2.5815    -2.3198 C.ar    
  18 C18            4.3921    -3.0342    -3.6208 C.ar    
  19 C19            3.1762    -3.5389    -4.0593 C.ar    
  20 C20            2.0938    -3.5883    -3.1911 C.ar    
  21 C21            2.2301    -3.1401    -1.8918 C.ar    
  22 N22            3.0407    -3.9981    -5.3773 N.pl3   
  23 F23            1.3401    -1.3770    -0.3337 F       
  24 C24            4.0075    -4.0107    -6.3314 C.2     
  25 N25            3.5037    -4.5098    -7.4271 N.2     
  26 C26            2.2178    -4.8299    -7.2194 C.2     
  27 C27            1.9091    -4.5244    -5.9448 C.2     
  28 F28            5.7054    -2.0898    -1.8911 F       
  29 F29            2.8524     3.9001    -0.3941 F       
  30 C30            1.2821    -5.4331    -8.2350 C.3     
  31 H31            0.4102     3.0182    -0.6398 H       
  32 H32           -0.2600     0.6535    -0.6084 H       
  33 H33            6.0160    -1.2980     0.2034 H       
  34 H34            8.6824     2.4410     0.3481 H       
  35 H35            4.3223    -2.7453     0.4828 H       
  36 H36            2.6235    -2.2141     0.4696 H       
  37 H37            5.2355    -2.9944    -4.2942 H       
  38 H38            1.1465    -3.9805    -3.5306 H       
  39 H39            1.3878    -3.1787    -1.2169 H       
  40 H40            5.0229    -3.6651    -6.2047 H       
  41 H41            0.9518    -4.6614    -5.4638 H       
  42 H42            1.3389    -6.5203    -8.1807 H       
  43 H43            0.2620    -5.1116    -8.0253 H       
  44 H44            1.5687    -5.1038    -9.2338 H       
@<TRIPOS>BOND
   1    1    2 ar
   2    1    6 ar
   3    1   31 1
   4    2    3 ar
   5    2   32 1
   6    3    4 ar
   7    3   23 1
   8    4    5 ar
   9    4    7 1
  10    5    6 ar
  11    5   10 1
  12    6   29 1
  13    7    8 1
  14    7   15 1
  15    8    9 2
  16    8   33 1
  17    9   10 1
  18    9   12 1
  19   10   11 2
  20   12   13 1
  21   12   14 2
  22   13   34 1
  23   15   16 1
  24   15   35 1
  25   15   36 1
  26   16   17 ar
  27   16   21 ar
  28   17   18 ar
  29   17   28 1
  30   18   19 ar
  31   18   37 1
  32   19   20 ar
  33   19   22 1
  34   20   21 ar
  35   20   38 1
  36   21   39 1
  37   22   24 1
  38   22   27 1
  39   24   25 2
  40   24   40 1
  41   25   26 1
  42   26   27 2
  43   26   30 1
  44   27   41 1
  45   30   42 1
  46   30   43 1
  47   30   44 1

#	End of record

