#	Name: ASD03430279
#	Creating user name:	WinNT
#	Creation time:	15. 06. 2019 20:40

#	Modifying user name:	WinNT
#	Modification time:	15. 06. 2019 20:40

#	Program:	/corina/corina34_cracker 3.40 0067  02.08.2006

@<TRIPOS>MOLECULE
ASD03430279
  47   52    0    0    0
SMALL
NO_CHARGES


@<TRIPOS>ATOM
   1 C1            -0.0169     1.3960     0.0097 C.ar    
   2 C2             0.0021    -0.0041     0.0020 C.ar    
   3 C3             1.1883    -0.6714    -0.0095 C.ar    
   4 C4             2.4003     0.0262    -0.0031 C.ar    
   5 C5             2.3887     1.4171    -0.0031 C.ar    
   6 C6             1.1890     2.1154     0.0021 C.ar    
   7 O7             3.4583    -0.8308     0.0156 O.3     
   8 C8             1.5379    -2.1351    -0.0440 C.3     
   9 C9             3.0256    -2.1328    -0.4219 C.3     
  10 C10            0.4129    -3.8557     1.0023 C.ar    
  11 C11            1.2964    -2.8131     1.2719 C.ar    
  12 C12            0.7109    -2.8948    -1.0410 C.2     
  13 N13            0.0906    -3.8765    -0.3568 N.am    
  14 O14            0.6188    -2.6689    -2.2291 O.2     
  15 C15            1.7532    -2.5960     2.5522 C.ar    
  16 C16            1.3373    -3.4172     3.5855 C.ar    
  17 C17            0.4617    -4.4561     3.3290 C.ar    
  18 C18           -0.0001    -4.6773     2.0478 C.ar    
  19 C19           -0.8161    -4.8519    -0.9673 C.3     
  20 C20           -2.2471    -4.3118    -0.9288 C.3     
  21 C21           -3.2093    -5.3311    -1.5691 C.3     
  22 C22           -4.2253    -5.6512    -0.4458 C.3     
  23 C23           -4.0767    -4.4220     0.4865 C.3     
  24 O24           -2.6639    -4.1288     0.4346 O.3     
  25 C25           -1.1224     2.3624     0.0314 C.2     
  26 C26           -0.4447     3.7163     0.0214 C.3     
  27 O27            0.9583     3.4499     0.0004 O.3     
  28 O28           -2.3128     2.1282     0.0520 O.2     
  29 H29           -0.9265    -0.5556     0.0056 H       
  30 H30            3.3227     1.9593    -0.0069 H       
  31 H31            3.1512    -2.2403    -1.4993 H       
  32 H32            3.5615    -2.9179     0.1114 H       
  33 H33            2.4366    -1.7836     2.7505 H       
  34 H34            1.6962    -3.2473     4.5898 H       
  35 H35            0.1379    -5.0975     4.1353 H       
  36 H36           -0.6847    -5.4901     1.8554 H       
  37 H37           -0.5206    -5.0245    -2.0022 H       
  38 H38           -0.7667    -5.7898    -0.4141 H       
  39 H39           -2.3001    -3.3645    -1.4653 H       
  40 H40           -3.7160    -4.8903    -2.4276 H       
  41 H41           -2.6703    -6.2315    -1.8639 H       
  42 H42           -5.2377    -5.7171    -0.8442 H       
  43 H43           -3.9531    -6.5694     0.0748 H       
  44 H44           -4.6574    -3.5808     0.1080 H       
  45 H45           -4.3797    -4.6724     1.5031 H       
  46 H46           -0.7378     4.2768    -0.8662 H       
  47 H47           -0.7047     4.2734     0.9215 H       
@<TRIPOS>BOND
   1    1    2 ar
   2    1    6 ar
   3    1   25 1
   4    2    3 ar
   5    2   29 1
   6    3    4 ar
   7    3    8 1
   8    4    5 ar
   9    4    7 1
  10    5    6 ar
  11    5   30 1
  12    6   27 1
  13    7    9 1
  14    8    9 1
  15    8   11 1
  16    8   12 1
  17    9   31 1
  18    9   32 1
  19   10   11 ar
  20   10   13 1
  21   10   18 ar
  22   11   15 ar
  23   12   13 am
  24   12   14 2
  25   13   19 1
  26   15   16 ar
  27   15   33 1
  28   16   17 ar
  29   16   34 1
  30   17   18 ar
  31   17   35 1
  32   18   36 1
  33   19   20 1
  34   19   37 1
  35   19   38 1
  36   20   21 1
  37   20   24 1
  38   20   39 1
  39   21   22 1
  40   21   40 1
  41   21   41 1
  42   22   23 1
  43   22   42 1
  44   22   43 1
  45   23   24 1
  46   23   44 1
  47   23   45 1
  48   25   26 1
  49   25   28 2
  50   26   27 1
  51   26   46 1
  52   26   47 1

#	End of record

