#	Name: ASD02198782
#	Creating user name:	WinNT
#	Creation time:	15. 06. 2019 20:20

#	Modifying user name:	WinNT
#	Modification time:	15. 06. 2019 20:20

#	Program:	/corina/corina34_cracker 3.40 0067  02.08.2006

@<TRIPOS>MOLECULE
ASD02198782
  56   60    0    0    0
SMALL
NO_CHARGES


@<TRIPOS>ATOM
   1 C1             0.2042     1.5006     0.1037 C.2     
   2 C2             0.2457     0.2080     0.5143 C.2     
   3 N3             1.4271    -0.4160     0.7208 N.pl3   
   4 N4             2.5631     0.1524     0.5485 N.2     
   5 C5             2.6660     1.4029     0.1518 C.2     
   6 C6             1.4351     2.1691    -0.1002 C.2     
   7 C7             1.4090    -1.7492     1.1444 C.ar    
   8 C8             2.0857    -2.1220     2.3051 C.ar    
   9 C9             2.0652    -3.4424     2.7218 C.ar    
  10 C10            1.3717    -4.3914     1.9837 C.ar    
  11 C11            0.6980    -4.0178     0.8273 C.ar    
  12 C12            0.7121    -2.7017     0.4123 C.ar    
  13 C13            3.9918     2.0260    -0.0360 C.2     
  14 N14            4.4535     2.6254    -1.1741 N.pl3   
  15 N15            5.7533     3.0804    -0.9195 N.2     
  16 C16            6.0723     2.7752     0.3130 C.2     
  17 C17            4.9939     2.1178     0.9051 C.2     
  18 C18            3.7524     2.7604    -2.3791 C.ar    
  19 C19            3.7925     3.9604    -3.0768 C.ar    
  20 C20            3.1005     4.0902    -4.2649 C.ar    
  21 C21            2.3682     3.0268    -4.7600 C.ar    
  22 C22            2.3259     1.8306    -4.0674 C.ar    
  23 C23            3.0204     1.6926    -2.8816 C.ar    
  24 O24            1.4741     3.3331    -0.4703 O.2     
  25 N25            1.3512    -5.7281     2.4049 N.pl3   
  26 N26            1.2764    -6.1746     3.7305 N.2     
  27 C27            1.2803    -7.4832     3.7260 C.2     
  28 C28            1.3576    -7.9208     2.4001 C.2     
  29 C29            1.3945    -6.8227     1.5994 C.2     
  30 O30            1.4703    -6.8195     0.2440 O.3     
  31 C31            1.4022    -8.0870    -0.4125 C.3     
  32 C32            1.6204    -7.8956    -1.9147 C.3     
  33 F33            2.8782    -7.3238    -2.1341 F       
  34 F34            1.5537    -9.1364    -2.5574 F       
  35 F35            0.6288    -7.0516    -2.4262 F       
  36 O36            2.7645    -1.1911     3.0260 O.3     
  37 C37            3.4344    -1.6447     4.2039 C.3     
  38 H38           -0.7373     2.0017    -0.0663 H       
  39 H39           -0.6768    -0.3291     0.6786 H       
  40 H40            2.5889    -3.7337     3.6203 H       
  41 H41            0.1590    -4.7579     0.2545 H       
  42 H42            0.1878    -2.4138    -0.4869 H       
  43 H43            7.0135     2.9987     0.7932 H       
  44 H44            4.9540     1.7424     1.9170 H       
  45 H45            4.3639     4.7915    -2.6904 H       
  46 H46            3.1310     5.0234    -4.8078 H       
  47 H47            1.8279     3.1307    -5.6893 H       
  48 H48            1.7528     1.0020    -4.4565 H       
  49 H49            2.9872     0.7581    -2.3413 H       
  50 H50            1.2320    -8.1178     4.5986 H       
  51 H51            1.3799    -8.9490     2.0703 H       
  52 H52            2.1748    -8.7446    -0.0140 H       
  53 H53            0.4222    -8.5325    -0.2415 H       
  54 H54            3.9354    -0.8039     4.6836 H       
  55 H55            2.7074    -2.0753     4.8924 H       
  56 H56            4.1716    -2.4010     3.9342 H       
@<TRIPOS>BOND
   1    1    2 2
   2    1    6 1
   3    1   38 1
   4    2    3 1
   5    2   39 1
   6    3    4 1
   7    3    7 1
   8    4    5 2
   9    5    6 1
  10    5   13 1
  11    6   24 2
  12    7    8 ar
  13    7   12 ar
  14    8    9 ar
  15    8   36 1
  16    9   10 ar
  17    9   40 1
  18   10   11 ar
  19   10   25 1
  20   11   12 ar
  21   11   41 1
  22   12   42 1
  23   13   14 1
  24   13   17 2
  25   14   15 1
  26   14   18 1
  27   15   16 2
  28   16   17 1
  29   16   43 1
  30   17   44 1
  31   18   19 ar
  32   18   23 ar
  33   19   20 ar
  34   19   45 1
  35   20   21 ar
  36   20   46 1
  37   21   22 ar
  38   21   47 1
  39   22   23 ar
  40   22   48 1
  41   23   49 1
  42   25   26 1
  43   25   29 1
  44   26   27 2
  45   27   28 1
  46   27   50 1
  47   28   29 2
  48   28   51 1
  49   29   30 1
  50   30   31 1
  51   31   32 1
  52   31   52 1
  53   31   53 1
  54   32   33 1
  55   32   34 1
  56   32   35 1
  57   36   37 1
  58   37   54 1
  59   37   55 1
  60   37   56 1

#	End of record

