#	Name: ASD02320069
#	Creating user name:	WinNT
#	Creation time:	15. 06. 2019 20:20

#	Modifying user name:	WinNT
#	Modification time:	15. 06. 2019 20:20

#	Program:	/corina/corina34_cracker 3.40 0067  02.08.2006

@<TRIPOS>MOLECULE
ASD02320069
 104  103    0    0    0
SMALL
NO_CHARGES


@<TRIPOS>ATOM
   1 C1            -0.0164     1.3560     0.0095 C.2     
   2 C2             0.0021    -0.0041     0.0020 C.2     
   3 O3             1.1438    -0.7103    -0.0122 O.3     
   4 C4             2.3572    -0.1189    -0.0208 C.ar    
   5 C5             1.2051     2.0703     0.0017 C.2     
   6 C6            -1.2815    -0.7309     0.0104 C.ar    
   7 C7            -1.2955    -2.1285     0.0030 C.ar    
   8 C8            -2.4962    -2.8031     0.0113 C.ar    
   9 C9            -3.6926    -2.0962     0.0270 C.ar    
  10 C10           -3.6833    -0.7066     0.0344 C.ar    
  11 C11           -2.4871    -0.0240     0.0315 C.ar    
  12 C12            3.5166    -0.8781    -0.0361 C.ar    
  13 C13            4.7548    -0.2541    -0.0452 C.ar    
  14 C14            4.8494     1.1330    -0.0384 C.ar    
  15 C15            3.7038     1.9073    -0.0232 C.ar    
  16 C16            2.4501     1.2838    -0.0145 C.ar    
  17 O17           -4.8740    -2.7652     0.0347 O.3     
  18 S18           -5.3991    -3.0781     1.4285 S.o2    
  19 O19           -6.4411    -4.0806     1.2689 O.co2   
  20 O20           -4.2717    -3.5804     2.1985 O.co2   
  21 O21           -5.9187    -1.8322     1.9705 O.co2   
  22 O22            1.2260     3.2906     0.0081 O.2     
  23 O23            3.7939     3.2614    -0.0161 O.3     
  24 O24            5.8857    -1.0049    -0.0602 O.3     
  25 S25            6.3877    -1.3401    -1.4574 S.o2    
  26 O26            7.3559    -2.4154    -1.3085 O.co2   
  27 O27            5.2277    -1.7533    -2.2319 O.co2   
  28 O28            6.9943    -0.1287    -1.9870 O.co2   
  29 O29            3.0817    14.2261     0.0542 O.3     
  30 C30            2.8175    15.5572     0.0644 C.ar    
  31 C31            1.4939    16.0134     0.0852 C.ar    
  32 C32            3.8536    16.4732     0.0602 C.ar    
  33 C33            3.5806    17.8364     0.0716 C.ar    
  34 C34            2.2722    18.2951     0.0869 C.ar    
  35 C35            1.2207    17.3923     0.0962 C.ar    
  36 C36           -0.9425    15.6232     0.1159 C.2     
  37 C37            0.3608    15.0726     0.0955 C.2     
  38 O38           -0.0589    17.8220     0.1153 O.3     
  39 C39           -1.0998    16.9743     0.1242 C.2     
  40 C40           -2.4664    17.5292     0.1451 C.ar    
  41 C41           -2.6607    18.9133     0.1540 C.ar    
  42 C42           -3.9384    19.4271     0.1730 C.ar    
  43 C43           -5.0335    18.5716     0.1833 C.ar    
  44 C44           -4.8449    17.1947     0.1745 C.ar    
  45 C45           -3.5707    16.6724     0.1501 C.ar    
  46 O46            0.5390    13.8653     0.0863 O.2     
  47 O47            4.6051    18.7271     0.0682 O.3     
  48 O48           -6.2912    19.0823     0.2025 O.3     
  49 S49           -6.8832    19.3220    -1.1790 S.o2    
  50 S50            5.0597    19.1424    -1.3237 S.o2    
  51 O51           -8.0421    20.1818    -0.9954 O.co2   
  52 O52           -5.8475    19.9641    -1.9735 O.co2   
  53 O53           -7.2493    18.0183    -1.7104 O.co2   
  54 O54            6.3540    19.7876    -1.1670 O.co2   
  55 O55            5.1485    17.9259    -2.1163 O.co2   
  56 O56            4.0525    20.0571    -1.8384 O.co2   
  57 C57            5.1074     3.8243    -0.0252 C.3     
  58 C58            4.4569    13.8378     0.0392 C.3     
  59 C59            5.0096     5.3281    -0.0155 C.ar    
  60 C60            4.9479     6.0223    -1.2103 C.ar    
  61 C61            4.9761     6.0087     1.1882 C.ar    
  62 C62            4.8866     7.3859     1.2029 C.ar    
  63 C63            4.8299     8.0906     0.0022 C.ar    
  64 C64            4.8587     7.3995    -1.2074 C.ar    
  65 C65            4.7336     9.5714     0.0118 C.ar    
  66 C66            4.6769    10.2761    -1.1889 C.ar    
  67 C67            4.5875    11.6533    -1.1742 C.ar    
  68 C68            4.5541    12.3339     0.0295 C.ar    
  69 C69            4.6101    11.6394     1.2244 C.ar    
  70 C70            4.6939    10.2617     1.2215 C.ar    
  71 H71           -0.9568     1.8870     0.0168 H       
  72 H72           -0.3662    -2.6786    -0.0096 H       
  73 H73           -2.5080    -3.8831     0.0053 H       
  74 H74           -4.6153    -0.1611     0.0462 H       
  75 H75           -2.4806     1.0560     0.0418 H       
  76 H76            3.4555    -1.9563    -0.0408 H       
  77 H77            5.8199     1.6068    -0.0448 H       
  78 H78            4.8771    16.1288     0.0483 H       
  79 H79            2.0724    19.3564     0.0960 H       
  80 H80           -1.8065    14.9752     0.1238 H       
  81 H81           -1.8102    19.5789     0.1464 H       
  82 H82           -4.0895    20.4965     0.1803 H       
  83 H83           -5.6987    16.5334     0.1829 H       
  84 H84           -3.4250    15.6023     0.1388 H       
  85 H85            5.6520     3.4899     0.8577 H       
  86 H86            5.6353     3.5003    -0.9221 H       
  87 H87            4.9379    14.2387    -0.8529 H       
  88 H88            4.9544    14.2283     0.9269 H       
  89 H89            4.9699     5.4856    -2.1473 H       
  90 H90            5.0198     5.4614     2.1182 H       
  91 H91            4.8602     7.9163     2.1433 H       
  92 H92            4.8113     7.9406    -2.1408 H       
  93 H93            4.7032     9.7457    -2.1293 H       
  94 H94            4.5438    12.2006    -2.1042 H       
  95 H95            4.5841    12.1758     2.1614 H       
  96 H96            4.7330     9.7201     2.1550 H       
  97 Na97          12.3559    25.4965     7.1985 Du      
  98 Na98          17.3559    30.4965    12.1985 Du      
  99 Na99          22.3559    35.4965    17.1985 Du      
 100 Na100         27.3559    40.4965    22.1985 Du      
 101 Na101         32.3559    45.4965    27.1985 Du      
 102 Na102         37.3559    50.4965    32.1985 Du      
 103 Na103         42.3559    55.4965    37.1985 Du      
 104 Na104         47.3559    60.4965    42.1985 Du      
@<TRIPOS>BOND
   1    1    2 2
   2    1    5 1
   3    1   71 1
   4    2    3 1
   5    2    6 1
   6    3    4 1
   7    4   12 ar
   8    4   16 ar
   9    5   22 2
  10    5   16 1
  11    6    7 ar
  12    6   11 ar
  13    7    8 ar
  14    7   72 1
  15    8    9 ar
  16    8   73 1
  17    9   10 ar
  18    9   17 1
  19   10   11 ar
  20   10   74 1
  21   11   75 1
  22   12   13 ar
  23   12   76 1
  24   13   14 ar
  25   13   24 1
  26   14   15 ar
  27   14   77 1
  28   15   16 ar
  29   15   23 1
  30   17   18 1
  31   18   19 ar
  32   18   20 ar
  33   18   21 ar
  34   23   57 1
  35   24   25 1
  36   25   26 ar
  37   25   27 ar
  38   25   28 ar
  39   29   30 1
  40   29   58 1
  41   30   32 ar
  42   30   31 ar
  43   31   35 ar
  44   31   37 1
  45   32   33 ar
  46   32   78 1
  47   33   34 ar
  48   33   47 1
  49   34   35 ar
  50   34   79 1
  51   35   38 1
  52   36   37 1
  53   36   39 2
  54   36   80 1
  55   37   46 2
  56   38   39 1
  57   39   40 1
  58   40   41 ar
  59   40   45 ar
  60   41   42 ar
  61   41   81 1
  62   42   43 ar
  63   42   82 1
  64   43   44 ar
  65   43   48 1
  66   44   45 ar
  67   44   83 1
  68   45   84 1
  69   47   50 1
  70   48   49 1
  71   49   51 ar
  72   49   52 ar
  73   49   53 ar
  74   50   54 ar
  75   50   55 ar
  76   50   56 ar
  77   57   59 1
  78   57   85 1
  79   57   86 1
  80   58   68 1
  81   58   87 1
  82   58   88 1
  83   59   61 ar
  84   59   60 ar
  85   60   64 ar
  86   60   89 1
  87   61   62 ar
  88   61   90 1
  89   62   63 ar
  90   62   91 1
  91   63   64 ar
  92   63   65 1
  93   64   92 1
  94   65   66 ar
  95   65   70 ar
  96   66   67 ar
  97   66   93 1
  98   67   68 ar
  99   67   94 1
 100   68   69 ar
 101   69   70 ar
 102   69   95 1
 103   70   96 1

#	End of record

