#	Name: ASD02030147
#	Creating user name:	WinNT
#	Creation time:	15. 06. 2019 20:14

#	Modifying user name:	WinNT
#	Modification time:	15. 06. 2019 20:14

#	Program:	/corina/corina34_cracker 3.40 0067  02.08.2006

@<TRIPOS>MOLECULE
ASD02030147
  52   55    0    0    0
SMALL
NO_CHARGES


@<TRIPOS>ATOM
   1 N1            -0.2114     1.4216    -0.1416 N.am    
   2 C2            -0.0216    -0.0120     0.1208 C.3     
   3 C3            -0.9183    -0.4178     1.2970 C.3     
   4 N4            -2.2772     0.0825     1.0460 N.am    
   5 C5            -2.4670     1.5161     0.7836 C.3     
   6 C6            -1.5709     1.9228    -0.3871 C.3     
   7 C7             0.8419     2.2624    -0.1514 C.2     
   8 C8             2.1842     1.7701     0.2244 C.2     
   9 N9             3.2632     2.5068     0.3789 N.2     
  10 N10            2.5164     0.4903     0.4744 N.2     
  11 C11            3.7909     0.4701     0.7711 C.2     
  12 N12            4.2444     1.7389     0.7073 N.pl3   
  13 O13            0.6881     3.4256    -0.4693 O.2     
  14 C14           -3.3305    -0.7583     1.0558 C.2     
  15 C15           -4.7013    -0.2268     0.9121 C.ar    
  16 O16           -3.1524    -1.9541     1.1830 O.2     
  17 C17           -1.5437     3.4478    -0.5071 C.3     
  18 C18           -2.1094     1.3118    -1.6823 C.3     
  19 C19            5.5604     2.1519     0.9557 C.ar    
  20 C20            5.8986     3.4948     0.8555 C.ar    
  21 C21            7.1964     3.8988     1.1008 C.ar    
  22 C22            8.1585     2.9673     1.4455 C.ar    
  23 C23            7.8247     1.6291     1.5461 C.ar    
  24 C24            6.5273     1.2198     1.3080 C.ar    
  25 C25           -5.6730    -0.9684     0.2373 C.ar    
  26 C26           -6.9518    -0.4673     0.1064 C.ar    
  27 C27           -7.2720     0.7711     0.6436 C.ar    
  28 C28           -6.3103     1.5107     1.3144 C.ar    
  29 C29           -5.0313     1.0166     1.4557 C.ar    
  30 Cl30          -8.1617    -1.3875    -0.7321 Cl      
  31 F31           -8.5253     1.2581     0.5123 F       
  32 H32           -0.2973    -0.5855    -0.7642 H       
  33 H33            1.0214    -0.2027     0.3731 H       
  34 H34           -0.9387    -1.5042     1.3836 H       
  35 H35           -0.5325     0.0180     2.2185 H       
  36 H36           -3.5101     1.7068     0.5313 H       
  37 H37           -2.1913     2.0896     1.6686 H       
  38 H38            4.3732    -0.4035     1.0243 H       
  39 H39           -1.0473     3.8722     0.3656 H       
  40 H40           -1.0001     3.7317    -1.4082 H       
  41 H41           -2.5644     3.8261    -0.5642 H       
  42 H42           -3.1229     1.6717    -1.8599 H       
  43 H43           -1.4693     1.6031    -2.5150 H       
  44 H44           -2.1198     0.2254    -1.5947 H       
  45 H45            5.1478     4.2227     0.5856 H       
  46 H46            7.4601     4.9432     1.0231 H       
  47 H47            9.1728     3.2855     1.6362 H       
  48 H48            8.5784     0.9040     1.8155 H       
  49 H49            6.2671     0.1746     1.3871 H       
  50 H50           -5.4240    -1.9322    -0.1817 H       
  51 H51           -6.5648     2.4742     1.7308 H       
  52 H52           -4.2832     1.5940     1.9785 H       
@<TRIPOS>BOND
   1    1    2 1
   2    1    7 am
   3    1    6 1
   4    2    3 1
   5    2   32 1
   6    2   33 1
   7    3    4 1
   8    3   34 1
   9    3   35 1
  10    4    5 1
  11    4   14 am
  12    5    6 1
  13    5   36 1
  14    5   37 1
  15    6   17 1
  16    6   18 1
  17    7    8 1
  18    7   13 2
  19    8    9 2
  20    8   10 1
  21    9   12 1
  22   10   11 2
  23   11   12 1
  24   11   38 1
  25   12   19 1
  26   14   15 1
  27   14   16 2
  28   15   25 ar
  29   15   29 ar
  30   17   39 1
  31   17   40 1
  32   17   41 1
  33   18   42 1
  34   18   43 1
  35   18   44 1
  36   19   20 ar
  37   19   24 ar
  38   20   21 ar
  39   20   45 1
  40   21   22 ar
  41   21   46 1
  42   22   23 ar
  43   22   47 1
  44   23   24 ar
  45   23   48 1
  46   24   49 1
  47   25   26 ar
  48   25   50 1
  49   26   27 ar
  50   26   30 1
  51   27   28 ar
  52   27   31 1
  53   28   29 ar
  54   28   51 1
  55   29   52 1

#	End of record

