#	Name: ASD03330558
#	Creating user name:	WinNT
#	Creation time:	15. 06. 2019 20:37

#	Modifying user name:	WinNT
#	Modification time:	15. 06. 2019 20:37

#	Program:	/corina/corina34_cracker 3.40 0067  02.08.2006

@<TRIPOS>MOLECULE
ASD03330558
  64   66    0    0    0
SMALL
NO_CHARGES


@<TRIPOS>ATOM
   1 C1            -0.0621     2.0054     1.7857 C.2     
   2 N2            -0.1513     0.7141     2.2016 N.pl3   
   3 C3             1.2144     2.1991     1.3523 C.2     
   4 N4             1.8786     1.0307     1.4910 N.2     
   5 C5             1.0651     0.1323     1.9946 C.2     
   6 C6             1.4096    -1.2759     2.2882 C.ar    
   7 C7             1.7714     3.4577     0.8259 C.2     
   8 O8             1.0697     4.4481     0.7490 O.2     
   9 C9             3.6123     4.7626    -0.0937 C.3     
  10 N10            3.0585     3.5113     0.4296 N.am    
  11 C11            3.3008     4.8727    -1.5876 C.3     
  12 C12            1.7899     4.7642    -1.8029 C.3     
  13 C13            3.7953     6.2217    -2.1136 C.3     
  14 C14            4.0056     3.7424    -2.3403 C.3     
  15 C15            5.1053     4.7753     0.1104 C.2     
  16 N16            5.7932     5.9271    -0.0180 N.am    
  17 O17            5.6879     3.7490     0.3901 O.2     
  18 C18            7.2529     5.9264     0.1072 C.3     
  19 C19           -1.3440     0.0876     2.7781 C.3     
  20 C20           -2.5601     0.4306     1.9119 C.3     
  21 C21           -3.1681     1.7502     2.3760 C.3     
  22 N22           -2.1333     2.6656     2.8609 N.3     
  23 C23           -1.1833     3.0119     1.7933 C.3     
  24 C24           -2.7308     3.8732     3.4460 C.3     
  25 C25            2.0940    -2.0415     1.3428 C.ar    
  26 C26            2.4131    -3.3616     1.6262 C.ar    
  27 C27            2.0520    -3.9163     2.8449 C.ar    
  28 C28            1.3732    -3.1580     3.7821 C.ar    
  29 C29            1.0565    -1.8426     3.5140 C.ar    
  30 O30            3.0797    -4.1118     0.7088 O.3     
  31 F31            2.4439    -1.4991     0.1559 F       
  32 C32            3.3756    -5.4631     1.0673 C.3     
  33 H33            3.1663     5.6059     0.4336 H       
  34 H34            3.6182     2.7214     0.4910 H       
  35 H35            1.2877     5.5694    -1.2667 H       
  36 H36            1.5679     4.8426    -2.8672 H       
  37 H37            1.4376     3.8031    -1.4282 H       
  38 H38            4.8398     6.3597    -1.8345 H       
  39 H39            3.7033     6.2441    -3.1995 H       
  40 H40            3.1949     7.0223    -1.6815 H       
  41 H41            3.6533     2.7814    -1.9655 H       
  42 H42            3.7837     3.8209    -3.4045 H       
  43 H43            5.0820     3.8197    -2.1869 H       
  44 H44            5.3219     6.7566    -0.1932 H       
  45 H45            7.6826     5.2767    -0.6552 H       
  46 H46            7.6294     6.9407    -0.0254 H       
  47 H47            7.5326     5.5613     1.0954 H       
  48 H48           -1.2101    -0.9938     2.8061 H       
  49 H49           -1.4998     0.4626     3.7896 H       
  50 H50           -2.2497     0.5207     0.8709 H       
  51 H51           -3.3032    -0.3619     2.0003 H       
  52 H52           -3.6941     2.2146     1.5419 H       
  53 H53           -3.8774     1.5540     3.1801 H       
  54 H54           -0.7781     4.0074     1.9747 H       
  55 H55           -1.6946     2.9952     0.8308 H       
  56 H56           -3.3700     3.5932     4.2834 H       
  57 H57           -1.9402     4.5358     3.7982 H       
  58 H58           -3.3257     4.3868     2.6907 H       
  59 H59            2.3012    -4.9443     3.0630 H       
  60 H60            1.0943    -3.5964     4.7289 H       
  61 H61            0.5265    -1.2542     4.2484 H       
  62 H62            3.9979    -5.4736     1.9621 H       
  63 H63            2.4468    -5.9984     1.2643 H       
  64 H64            3.9079    -5.9478     0.2489 H       
@<TRIPOS>BOND
   1    1    2 1
   2    1    3 2
   3    1   23 1
   4    2   19 1
   5    2    5 1
   6    3    4 1
   7    3    7 1
   8    4    5 2
   9    5    6 1
  10    6   25 ar
  11    6   29 ar
  12    7    8 2
  13    7   10 am
  14    9   10 1
  15    9   11 1
  16    9   15 1
  17    9   33 1
  18   10   34 1
  19   11   12 1
  20   11   13 1
  21   11   14 1
  22   12   35 1
  23   12   36 1
  24   12   37 1
  25   13   38 1
  26   13   39 1
  27   13   40 1
  28   14   41 1
  29   14   42 1
  30   14   43 1
  31   15   16 am
  32   15   17 2
  33   16   18 1
  34   16   44 1
  35   18   45 1
  36   18   46 1
  37   18   47 1
  38   19   20 1
  39   19   48 1
  40   19   49 1
  41   20   21 1
  42   20   50 1
  43   20   51 1
  44   21   22 1
  45   21   52 1
  46   21   53 1
  47   22   23 1
  48   22   24 1
  49   23   54 1
  50   23   55 1
  51   24   56 1
  52   24   57 1
  53   24   58 1
  54   25   26 ar
  55   25   31 1
  56   26   27 ar
  57   26   30 1
  58   27   28 ar
  59   27   59 1
  60   28   29 ar
  61   28   60 1
  62   29   61 1
  63   30   32 1
  64   32   62 1
  65   32   63 1
  66   32   64 1

#	End of record

