#	Name: ASD01917080
#	Creating user name:	WinNT
#	Creation time:	15. 06. 2019 20:08

#	Modifying user name:	WinNT
#	Modification time:	15. 06. 2019 20:08

#	Program:	/corina/corina34_cracker 3.40 0067  02.08.2006

@<TRIPOS>MOLECULE
ASD01917080
  34   36    0    0    0
SMALL
NO_CHARGES


@<TRIPOS>ATOM
   1 C1            -0.3735     1.0542     0.0432 C.2     
   2 C2            -0.1023    -0.4281     0.0298 C.3     
   3 O3             0.5469     1.8369     0.0281 O.2     
   4 O4            -1.6376     1.5050     0.0663 O.3     
   5 N5             1.3440    -0.6597    -0.0016 N.pl3   
   6 N6             2.2032    -0.7632     1.1043 N.2     
   7 C7             3.4131    -0.9705     0.6308 C.2     
   8 N8             3.3573    -1.0021    -0.7053 N.2     
   9 C9             2.1151    -0.8221    -1.1019 C.2     
  10 C10            1.6449    -0.7984    -2.5045 C.ar    
  11 C11            0.4272    -0.1971    -2.8245 C.ar    
  12 C12           -0.0067    -0.1777    -4.1335 C.ar    
  13 C13            0.7646    -0.7540    -5.1303 C.ar    
  14 C14            1.9747    -1.3529    -4.8176 C.ar    
  15 C15            2.4204    -1.3722    -3.5125 C.ar    
  16 F16            0.3352    -0.7324    -6.4110 F       
  17 C17            4.6409    -1.1407     1.4469 C.ar    
  18 C18            5.8691    -1.3555     0.8248 C.ar    
  19 C19            7.0082    -1.5128     1.5872 C.ar    
  20 C20            6.9320    -1.4579     2.9695 C.ar    
  21 C21            5.7129    -1.2445     3.5922 C.ar    
  22 C22            4.5697    -1.0804     2.8371 C.ar    
  23 F23            8.0497    -1.6133     3.7124 F       
  24 H24           -0.5236    -0.8827     0.9264 H       
  25 H25           -0.5608    -0.8734    -0.8531 H       
  26 H26           -1.7616     2.4640     0.0741 H       
  27 H27           -0.1747     0.2520    -2.0484 H       
  28 H28           -0.9493     0.2872    -4.3821 H       
  29 H29            2.5720    -1.8010    -5.5979 H       
  30 H30            3.3659    -1.8345    -3.2706 H       
  31 H31            5.9292    -1.3992    -0.2527 H       
  32 H32            7.9605    -1.6794     1.1059 H       
  33 H33            5.6578    -1.2027     4.6700 H       
  34 H34            3.6205    -0.9097     3.3231 H       
@<TRIPOS>BOND
   1    1    2 1
   2    1    3 2
   3    1    4 1
   4    2    5 1
   5    2   24 1
   6    2   25 1
   7    4   26 1
   8    5    6 1
   9    5    9 1
  10    6    7 2
  11    7    8 1
  12    7   17 1
  13    8    9 2
  14    9   10 1
  15   10   11 ar
  16   10   15 ar
  17   11   12 ar
  18   11   27 1
  19   12   13 ar
  20   12   28 1
  21   13   14 ar
  22   13   16 1
  23   14   15 ar
  24   14   29 1
  25   15   30 1
  26   17   18 ar
  27   17   22 ar
  28   18   19 ar
  29   18   31 1
  30   19   20 ar
  31   19   32 1
  32   20   21 ar
  33   20   23 1
  34   21   22 ar
  35   21   33 1
  36   22   34 1

#	End of record

