#	Name: ASD03540158
#	Creating user name:	WinNT
#	Creation time:	15. 06. 2019 20:42

#	Modifying user name:	WinNT
#	Modification time:	15. 06. 2019 20:42

#	Program:	/corina/corina34_cracker 3.40 0067  02.08.2006

@<TRIPOS>MOLECULE
ASD03540158
  43   46    0    0    0
SMALL
NO_CHARGES


@<TRIPOS>ATOM
   1 C1            -0.0163     1.3487     0.0095 C.2     
   2 C2             0.0021    -0.0041     0.0020 C.2     
   3 C3             1.3459    -0.4008    -0.0129 C.2     
   4 C4             2.0972     0.7576    -0.0139 C.2     
   5 O5             1.2426     1.8029    -0.0001 O.3     
   6 C6             3.5081     0.8352    -0.0262 C.2     
   7 O7             4.0566     1.9187    -0.0257 O.2     
   8 C8            -4.6584     4.5438     7.3314 C.2     
   9 N9            -3.6665     3.8590     6.7442 N.am    
  10 C10           -3.5584     3.7880     5.3669 C.2     
  11 C11           -4.4998     4.4420     4.5804 C.2     
  12 C12           -5.5744     5.1852     5.2763 C.2     
  13 N13           -5.5945     5.1944     6.6221 N.am    
  14 C14           -4.2704     4.2870     3.2121 C.2     
  15 C15           -3.1923     3.5413     2.9128 C.2     
  16 S16           -2.4083     2.9944     4.3841 S.3     
  17 C17           -2.7392     3.2304     1.5571 C.2     
  18 O18           -3.3533     3.6574     0.5977 O.2     
  19 O19           -1.6404     2.4701     1.3708 O.3     
  20 O20           -6.4271     5.7775     4.6416 O.2     
  21 O21           -4.7144     4.5729     8.5455 O.2     
  22 C22           -6.6532     5.9251     7.3232 C.3     
  23 C23           -6.2073     7.3438     7.5676 C.ar    
  24 C24           -6.4723     8.3230     6.6285 C.ar    
  25 C25           -6.0633     9.6243     6.8526 C.ar    
  26 C26           -5.3897     9.9465     8.0159 C.ar    
  27 C27           -5.1256     8.9674     8.9554 C.ar    
  28 C28           -5.5385     7.6670     8.7333 C.ar    
  29 C29           -1.2553     2.2064     0.0202 C.3     
  30 H30           -0.8586    -0.6565     0.0070 H       
  31 H31            1.7204    -1.4137    -0.0214 H       
  32 H32            4.0987    -0.0690    -0.0361 H       
  33 H33           -3.0115     3.4041     7.2963 H       
  34 H34           -4.9050     4.7285     2.4580 H       
  35 H35           -7.5572     5.9281     6.7143 H       
  36 H36           -6.8593     5.4396     8.2771 H       
  37 H37           -6.9985     8.0712     5.7195 H       
  38 H38           -6.2696    10.3891     6.1185 H       
  39 H39           -5.0696    10.9630     8.1907 H       
  40 H40           -4.5991     9.2191     9.8642 H       
  41 H41           -5.3354     6.9028     9.4690 H       
  42 H42           -1.0500     3.1477    -0.4895 H       
  43 H43           -2.0631     1.6842    -0.4925 H       
@<TRIPOS>BOND
   1    1    2 2
   2    1    5 1
   3    1   29 1
   4    2    3 1
   5    2   30 1
   6    3    4 2
   7    3   31 1
   8    4    5 1
   9    4    6 1
  10    6    7 2
  11    6   32 1
  12    8    9 am
  13    8   13 am
  14    8   21 2
  15    9   10 1
  16    9   33 1
  17   10   11 2
  18   10   16 1
  19   11   12 1
  20   11   14 1
  21   12   13 am
  22   12   20 2
  23   13   22 1
  24   14   15 2
  25   14   34 1
  26   15   16 1
  27   15   17 1
  28   17   18 2
  29   17   19 1
  30   19   29 1
  31   22   23 1
  32   22   35 1
  33   22   36 1
  34   23   24 ar
  35   23   28 ar
  36   24   25 ar
  37   24   37 1
  38   25   26 ar
  39   25   38 1
  40   26   27 ar
  41   26   39 1
  42   27   28 ar
  43   27   40 1
  44   28   41 1
  45   29   42 1
  46   29   43 1

#	End of record

