#	Name: ASD00460040
#	Creating user name:	WinNT
#	Creation time:	15. 06. 2019 18:36

#	Modifying user name:	WinNT
#	Modification time:	15. 06. 2019 18:36

#	Program:	/corina/corina34_cracker 3.40 0067  02.08.2006

@<TRIPOS>MOLECULE
ASD00460040
  70   72    0    0    0
SMALL
NO_CHARGES


@<TRIPOS>ATOM
   1 C1             2.5907     0.4605    -0.7850 C.3     
   2 C2             2.4704    -1.0614    -0.8858 C.3     
   3 O3             2.8407    -1.4886    -2.2232 O.3     
   4 C4             2.7886    -2.8054    -2.4786 C.2     
   5 O5             2.4449    -3.5754    -1.6133 O.2     
   6 C6             3.1588    -3.3232    -3.8446 C.3     
   7 C7             3.0148    -4.8462    -3.8689 C.3     
   8 C8             3.3849    -5.3641    -5.2348 C.ar    
   9 C9             4.6969    -5.7143    -5.5058 C.ar    
  10 C10            5.0468    -6.1891    -6.7520 C.ar    
  11 C11            4.0743    -6.3184    -7.7461 C.ar    
  12 C12            2.7470    -5.9631    -7.4673 C.ar    
  13 C13            2.4123    -5.4920    -6.2075 C.ar    
  14 O14            1.7935    -6.0838    -8.4254 O.3     
  15 C15            0.4633    -5.7026    -8.0685 C.3     
  16 C16           -0.4648    -5.9066    -9.2676 C.3     
  17 C17           -1.9082    -5.6178    -8.8504 C.3     
  18 N18           -2.8119    -5.9285    -9.9661 N.3     
  19 C19           -4.2098    -5.6626    -9.6009 C.3     
  20 C20           -5.1187    -5.9973   -10.7853 C.3     
  21 C21           -4.9200    -7.4613   -11.1830 C.3     
  22 C22           -5.9294    -7.8752   -12.2747 C.3     
  23 C23           -5.1769    -8.8413   -13.1643 C.ar    
  24 C24           -3.8179    -8.7163   -12.9455 C.ar    
  25 C25           -3.5642    -7.6575   -11.8940 C.3     
  26 C26           -2.9297    -9.5074   -13.6551 C.ar    
  27 C27           -3.3977   -10.4197   -14.5803 C.ar    
  28 C28           -4.7571   -10.5448   -14.7992 C.ar    
  29 C29           -5.6443    -9.7572   -14.0922 C.ar    
  30 C30           -4.5968    -6.5285    -8.4004 C.3     
  31 C31           -4.3696    -4.1852    -9.2369 C.3     
  32 O32           -0.0860    -5.0171   -10.3199 O.3     
  33 C33            4.4309    -6.8105    -9.0428 C.1     
  34 N34            4.7138    -7.2008   -10.0714 N.1     
  35 H35            3.6191     0.7581    -0.9897 H       
  36 H36            1.9260     0.9265    -1.5124 H       
  37 H37            2.3126     0.7813     0.2189 H       
  38 H38            3.1351    -1.5274    -0.1584 H       
  39 H39            1.4420    -1.3589    -0.6811 H       
  40 H40            2.4974    -2.8838    -4.5912 H       
  41 H41            4.1905    -3.0522    -4.0686 H       
  42 H42            3.6762    -5.2857    -3.1222 H       
  43 H43            1.9830    -5.1172    -3.6449 H       
  44 H44            5.4496    -5.6147    -4.7377 H       
  45 H45            6.0714    -6.4604    -6.9592 H       
  46 H46            1.3911    -5.2171    -5.9883 H       
  47 H47            0.1207    -6.3162    -7.2353 H       
  48 H48            0.4525    -4.6528    -7.7752 H       
  49 H49           -0.3866    -6.9363    -9.6165 H       
  50 H50           -2.1679    -6.2343    -7.9899 H       
  51 H51           -2.0061    -4.5649    -8.5858 H       
  52 H52           -2.5513    -5.4168   -10.7957 H       
  53 H53           -6.1588    -5.8357   -10.5021 H       
  54 H54           -4.8678    -5.3544   -11.6289 H       
  55 H55           -5.0021    -8.1121   -10.3125 H       
  56 H56           -6.7916    -8.3679   -11.8254 H       
  57 H57           -6.2467    -7.0032   -12.8466 H       
  58 H58           -3.2452    -6.7269   -12.3635 H       
  59 H59           -2.8114    -8.0016   -11.1847 H       
  60 H60           -1.8677    -9.4103   -13.4846 H       
  61 H61           -2.7025   -11.0346   -15.1325 H       
  62 H62           -5.1247   -11.2572   -15.5228 H       
  63 H63           -6.7061    -9.8557   -14.2635 H       
  64 H64           -4.0317    -6.2090    -7.5247 H       
  65 H65           -5.6635    -6.4208    -8.2036 H       
  66 H66           -4.3709    -7.5725    -8.6175 H       
  67 H67           -4.0939    -3.5683   -10.0922 H       
  68 H68           -5.4069    -3.9879    -8.9660 H       
  69 H69           -3.7221    -3.9468    -8.3931 H       
  70 H70           -0.1318    -4.0815   -10.0796 H       
@<TRIPOS>BOND
   1    1    2 1
   2    1   35 1
   3    1   36 1
   4    1   37 1
   5    2    3 1
   6    2   38 1
   7    2   39 1
   8    3    4 1
   9    4    5 2
  10    4    6 1
  11    6    7 1
  12    6   40 1
  13    6   41 1
  14    7    8 1
  15    7   42 1
  16    7   43 1
  17    8    9 ar
  18    8   13 ar
  19    9   10 ar
  20    9   44 1
  21   10   11 ar
  22   10   45 1
  23   11   12 ar
  24   11   33 1
  25   12   13 ar
  26   12   14 1
  27   13   46 1
  28   14   15 1
  29   15   16 1
  30   15   47 1
  31   15   48 1
  32   16   17 1
  33   16   32 1
  34   16   49 1
  35   17   18 1
  36   17   50 1
  37   17   51 1
  38   18   19 1
  39   18   52 1
  40   19   20 1
  41   19   30 1
  42   19   31 1
  43   20   21 1
  44   20   53 1
  45   20   54 1
  46   21   22 1
  47   21   25 1
  48   21   55 1
  49   22   23 1
  50   22   56 1
  51   22   57 1
  52   23   24 ar
  53   23   29 ar
  54   24   25 1
  55   24   26 ar
  56   25   58 1
  57   25   59 1
  58   26   27 ar
  59   26   60 1
  60   27   28 ar
  61   27   61 1
  62   28   29 ar
  63   28   62 1
  64   29   63 1
  65   30   64 1
  66   30   65 1
  67   30   66 1
  68   31   67 1
  69   31   68 1
  70   31   69 1
  71   32   70 1
  72   33   34 3

#	End of record

