#	Name: ASD00960292
#	Creating user name:	WinNT
#	Creation time:	15. 06. 2019 18:53

#	Modifying user name:	WinNT
#	Modification time:	15. 06. 2019 18:53

#	Program:	/corina/corina34_cracker 3.40 0067  02.08.2006

@<TRIPOS>MOLECULE
ASD00960292
  51   54    0    0    0
SMALL
NO_CHARGES


@<TRIPOS>ATOM
   1 C1            -0.0165     1.3660     0.0096 C.2     
   2 C2             0.0021    -0.0041     0.0020 C.2     
   3 N3             1.2765     1.8140    -0.0004 N.pl3   
   4 C4             2.1113     0.7475    -0.0003 C.2     
   5 C5             1.3602    -0.4011    -0.0065 C.2     
   6 N6             1.7702     3.1279     0.0042 N.2     
   7 C7             3.0346     3.3152    -0.2318 C.2     
   8 N8             3.8818     2.2694    -0.5236 N.pl3   
   9 C9             3.6119     0.9246     0.0175 C.3     
  10 N10            4.1148     0.8257     1.3942 N.3     
  11 C11            1.8703    -1.7831    -0.0196 C.2     
  12 O12            3.0690    -1.9888    -0.0260 O.2     
  13 N13            1.0087    -2.8195    -0.0245 N.am    
  14 C14            1.5160    -4.1938    -0.0375 C.3     
  15 C15            0.3570    -5.1570    -0.0407 C.ar    
  16 C16           -0.1793    -5.5892    -1.2393 C.ar    
  17 C17           -0.1662    -5.6128     1.1549 C.ar    
  18 C18           -1.2293    -6.4964     1.1520 C.ar    
  19 C19           -1.7695    -6.9238    -0.0465 C.ar    
  20 C20           -1.2424    -6.4728    -1.2422 C.ar    
  21 C21           -1.2157     2.2075     0.0201 C.2     
  22 O22           -2.3184     1.6946     0.0232 O.2     
  23 O23           -1.0968     3.5511     0.0263 O.3     
  24 C24           -2.3273     4.3217     0.0366 C.3     
  25 C25           -1.9989     5.7925     0.0424 C.ar    
  26 C26           -1.8545     6.4731    -1.1521 C.ar    
  27 C27           -1.5533     7.8222    -1.1468 C.ar    
  28 C28           -1.3968     8.4908     0.0529 C.ar    
  29 C29           -1.5421     7.8104     1.2474 C.ar    
  30 C30           -1.8477     6.4622     1.2421 C.ar    
  31 H31           -0.8577    -0.6576     0.0025 H       
  32 H32            3.4318     4.3190    -0.1986 H       
  33 H33            4.6578     2.4178    -1.0864 H       
  34 H34            4.0842     0.1681    -0.6092 H       
  35 H35            5.1099     0.9889     1.4282 H       
  36 H36            3.6232     1.4605     2.0052 H       
  37 H37            0.0527    -2.6554    -0.0194 H       
  38 H38            2.1203    -4.3495    -0.9312 H       
  39 H39            2.1273    -4.3638     0.8487 H       
  40 H40            0.2321    -5.2363    -2.1734 H       
  41 H41            0.2559    -5.2788     2.0912 H       
  42 H42           -1.6375    -6.8530     2.0861 H       
  43 H43           -2.5998    -7.6144    -0.0487 H       
  44 H44           -1.6644    -6.8067    -2.1785 H       
  45 H45           -2.9126     4.0836    -0.8516 H       
  46 H46           -2.9034     4.0746     0.9283 H       
  47 H47           -1.9768     5.9508    -2.0895 H       
  48 H48           -1.4398     8.3538    -2.0801 H       
  49 H49           -1.1607     9.5447     0.0571 H       
  50 H50           -1.4195     8.3326     2.1848 H       
  51 H51           -1.9649     5.9314     2.1754 H       
@<TRIPOS>BOND
   1    1    2 2
   2    1    3 1
   3    1   21 1
   4    2    5 1
   5    2   31 1
   6    3    4 1
   7    3    6 1
   8    4    5 2
   9    4    9 1
  10    5   11 1
  11    6    7 2
  12    7    8 1
  13    7   32 1
  14    8    9 1
  15    8   33 1
  16    9   10 1
  17    9   34 1
  18   10   35 1
  19   10   36 1
  20   11   12 2
  21   11   13 am
  22   13   14 1
  23   13   37 1
  24   14   15 1
  25   14   38 1
  26   14   39 1
  27   15   16 ar
  28   15   17 ar
  29   16   20 ar
  30   16   40 1
  31   17   18 ar
  32   17   41 1
  33   18   19 ar
  34   18   42 1
  35   19   20 ar
  36   19   43 1
  37   20   44 1
  38   21   22 2
  39   21   23 1
  40   23   24 1
  41   24   25 1
  42   24   45 1
  43   24   46 1
  44   25   26 ar
  45   25   30 ar
  46   26   27 ar
  47   26   47 1
  48   27   28 ar
  49   27   48 1
  50   28   29 ar
  51   28   49 1
  52   29   30 ar
  53   29   50 1
  54   30   51 1

#	End of record

