#	Name: ASD01841043
#	Creating user name:	WinNT
#	Creation time:	15. 06. 2019 19:38

#	Modifying user name:	WinNT
#	Modification time:	15. 06. 2019 19:38

#	Program:	/corina/corina34_cracker 3.40 0067  02.08.2006

@<TRIPOS>MOLECULE
ASD01841043
  35   37    0    0    0
SMALL
NO_CHARGES


@<TRIPOS>ATOM
   1 C1            -0.0179     1.4710     0.0101 C.2     
   2 C2             0.0021    -0.0041     0.0020 C.ar    
   3 O3             1.0266     2.0931     0.0035 O.2     
   4 N4            -1.1941     2.1289     0.0193 N.am    
   5 S5            -2.6697     4.4980     0.0392 S.3     
   6 C6            -1.2129     3.5138     0.0269 C.2     
   7 N7            -0.1661     4.2633     0.0265 N.2     
   8 C8            -0.3466     5.5994     0.0349 C.ar    
   9 C9            -1.6946     5.9656     0.0432 C.ar    
  10 C10           -2.0608     7.3105     0.0521 C.ar    
  11 C11           -1.0963     8.2932     0.0530 C.ar    
  12 C12            0.2467     7.9474     0.0444 C.ar    
  13 C13            0.6284     6.6247     0.0364 C.ar    
  14 C14           -3.5190     7.6908     0.0604 C.3     
  15 O15            1.9490     6.3020     0.0286 O.3     
  16 C16            2.8814     7.3849     0.0306 C.3     
  17 C17           -1.1965    -0.7221     0.0096 C.ar    
  18 C18           -1.1720    -2.0995     0.0015 C.ar    
  19 C19            0.0392    -2.7757    -0.0137 C.ar    
  20 C20            1.2324    -2.0718    -0.0213 C.ar    
  21 C21            1.2218    -0.6903    -0.0192 C.ar    
  22 F22            0.0552    -4.1266    -0.0207 F       
  23 F23            2.3853    -0.0038    -0.0270 F       
  24 H24           -2.0275     1.6325     0.0205 H       
  25 H25           -1.3857     9.3337     0.0600 H       
  26 H26            0.9993     8.7220     0.0444 H       
  27 H27           -3.8662     7.7768     1.0901 H       
  28 H28           -3.6482     8.6465    -0.4476 H       
  29 H29           -4.0974     6.9242    -0.4552 H       
  30 H30            3.8972     6.9897     0.0237 H       
  31 H31            2.7251     8.0006    -0.8552 H       
  32 H32            2.7332     7.9904     0.9247 H       
  33 H33           -2.1408    -0.1980     0.0222 H       
  34 H34           -2.0985    -2.6545     0.0074 H       
  35 H35            2.1722    -2.6038    -0.0332 H       
@<TRIPOS>BOND
   1    1    2 1
   2    1    3 2
   3    1    4 am
   4    2   17 ar
   5    2   21 ar
   6    4    6 1
   7    4   24 1
   8    5    6 1
   9    5    9 1
  10    6    7 2
  11    7    8 1
  12    8    9 ar
  13    8   13 ar
  14    9   10 ar
  15   10   11 ar
  16   10   14 1
  17   11   12 ar
  18   11   25 1
  19   12   13 ar
  20   12   26 1
  21   13   15 1
  22   14   27 1
  23   14   28 1
  24   14   29 1
  25   15   16 1
  26   16   30 1
  27   16   31 1
  28   16   32 1
  29   17   18 ar
  30   17   33 1
  31   18   19 ar
  32   18   34 1
  33   19   20 ar
  34   19   22 1
  35   20   21 ar
  36   20   35 1
  37   21   23 1

#	End of record

