#	Name: ASD03540572
#	Creating user name:	WinNT
#	Creation time:	15. 06. 2019 20:43

#	Modifying user name:	WinNT
#	Modification time:	15. 06. 2019 20:43

#	Program:	/corina/corina34_cracker 3.40 0067  02.08.2006

@<TRIPOS>MOLECULE
ASD03540572
  72   75    0    0    0
SMALL
NO_CHARGES


@<TRIPOS>ATOM
   1 C1             2.6748    -8.8100    -2.5295 C.2     
   2 C2             1.9726    -7.7402    -1.7914 C.ar    
   3 C3             2.6786    -6.6282    -1.3278 C.ar    
   4 C4             2.0166    -5.6327    -0.6397 C.ar    
   5 C5             0.6562    -5.7344    -0.4082 C.ar    
   6 C6            -0.0494    -6.8337    -0.8644 C.ar    
   7 C7             0.5990    -7.8336    -1.5592 C.ar    
   8 O8             3.8690    -8.7235    -2.7343 O.2     
   9 O9             1.9918    -9.8840    -2.9705 O.3     
  10 C10           -0.0601    -4.6430     0.3447 C.3     
  11 N11           -3.4511    -5.3008     1.6253 N.am    
  12 C12           -2.4048    -4.8133     0.9374 C.2     
  13 N13           -1.1441    -5.2276     1.1382 N.am    
  14 C14           -0.8562    -6.1739     2.0583 C.2     
  15 C15           -1.9668    -6.7448     2.8425 C.ar    
  16 C16           -1.7524    -7.7218     3.8064 C.ar    
  17 C17           -2.8396    -8.2269     4.5184 C.ar    
  18 C18           -4.1307    -7.7502     4.2596 C.ar    
  19 C19           -4.3411    -6.7893     3.3114 C.ar    
  20 C20           -3.2701    -6.2743     2.5922 C.ar    
  21 O21            0.2880    -6.5453     2.2347 O.2     
  22 O22           -2.6090    -3.9593     0.0966 O.2     
  23 C23            0.9261    -3.9324     1.2739 C.3     
  24 C24           -2.6295    -9.2660     5.5460 C.2     
  25 N25           -3.6799    -9.7548     6.2347 N.am    
  26 O26           -1.5090    -9.6806     5.7710 O.2     
  27 C27           -3.4714   -10.7858     7.2544 C.3     
  28 C28           -4.7952   -11.1571     7.8714 C.ar    
  29 C29           -5.5497   -12.1781     7.3238 C.ar    
  30 C30           -6.7636   -12.5204     7.8875 C.ar    
  31 C31           -7.2254   -11.8386     9.0040 C.ar    
  32 C32           -6.4665   -10.8145     9.5516 C.ar    
  33 C33           -5.2506   -10.4798     8.9875 C.ar    
  34 O34           -8.4194   -12.1731     9.5601 O.3     
  35 C35           -8.8318   -11.4286    10.7080 C.3     
  36 C36            2.7464   -10.8959    -3.6882 C.3     
  37 C37            1.8086   -12.0300    -4.1071 C.3     
  38 N38            0.8279   -11.5219    -5.0756 N.3     
  39 C39            1.4372   -11.3504    -6.4012 C.3     
  40 C40           -0.3468   -12.4012    -5.1458 C.3     
  41 H41            3.7405    -6.5480    -1.5072 H       
  42 H42            2.5614    -4.7721    -0.2806 H       
  43 H43           -1.1110    -6.9072    -0.6796 H       
  44 H44            0.0462    -8.6888    -1.9190 H       
  45 H45           -0.4744    -3.9250    -0.3630 H       
  46 H46           -4.3428    -4.9644     1.4444 H       
  47 H47           -0.7548    -8.0863     4.0020 H       
  48 H48           -4.9682    -8.1463     4.8147 H       
  49 H49           -5.3416    -6.4299     3.1206 H       
  50 H50            1.7326    -3.4975     0.6835 H       
  51 H51            0.4080    -3.1431     1.8184 H       
  52 H52            1.3404    -4.6505     1.9816 H       
  53 H53           -4.5739    -9.4240     6.0552 H       
  54 H54           -3.0252   -11.6673     6.7939 H       
  55 H55           -2.8050   -10.4029     8.0273 H       
  56 H56           -5.1900   -12.7084     6.4544 H       
  57 H57           -7.3528   -13.3178     7.4592 H       
  58 H58           -6.8238   -10.2822    10.4207 H       
  59 H59           -4.6572    -9.6858     9.4162 H       
  60 H60           -9.7989   -11.7960    11.0512 H       
  61 H61           -8.0950   -11.5479    11.5024 H       
  62 H62           -8.9160   -10.3739    10.4460 H       
  63 H63            3.1979   -10.4515    -4.5752 H       
  64 H64            3.5293   -11.2920    -3.0416 H       
  65 H65            2.3891   -12.8313    -4.5642 H       
  66 H66            1.2878   -12.4135    -3.2297 H       
  67 H67            1.8130   -12.3104    -6.7552 H       
  68 H68            0.6894   -10.9733    -7.0988 H       
  69 H69            2.2614   -10.6403    -6.3331 H       
  70 H70           -0.8681   -12.3884    -4.1887 H       
  71 H71           -1.0176   -12.0494    -5.9296 H       
  72 H72           -0.0263   -13.4183    -5.3714 H       
@<TRIPOS>BOND
   1    1    2 1
   2    1    8 2
   3    1    9 1
   4    2    3 ar
   5    2    7 ar
   6    3    4 ar
   7    3   41 1
   8    4    5 ar
   9    4   42 1
  10    5    6 ar
  11    5   10 1
  12    6    7 ar
  13    6   43 1
  14    7   44 1
  15    9   36 1
  16   10   13 1
  17   10   23 1
  18   10   45 1
  19   11   12 am
  20   11   20 1
  21   11   46 1
  22   12   13 am
  23   12   22 2
  24   13   14 am
  25   14   15 1
  26   14   21 2
  27   15   16 ar
  28   15   20 ar
  29   16   17 ar
  30   16   47 1
  31   17   18 ar
  32   17   24 1
  33   18   19 ar
  34   18   48 1
  35   19   20 ar
  36   19   49 1
  37   23   50 1
  38   23   51 1
  39   23   52 1
  40   24   25 am
  41   24   26 2
  42   25   27 1
  43   25   53 1
  44   27   28 1
  45   27   54 1
  46   27   55 1
  47   28   29 ar
  48   28   33 ar
  49   29   30 ar
  50   29   56 1
  51   30   31 ar
  52   30   57 1
  53   31   32 ar
  54   31   34 1
  55   32   33 ar
  56   32   58 1
  57   33   59 1
  58   34   35 1
  59   35   60 1
  60   35   61 1
  61   35   62 1
  62   36   37 1
  63   36   63 1
  64   36   64 1
  65   37   38 1
  66   37   65 1
  67   37   66 1
  68   38   39 1
  69   38   40 1
  70   39   67 1
  71   39   68 1
  72   39   69 1
  73   40   70 1
  74   40   71 1
  75   40   72 1

#	End of record

