#	Name: ASD01140581
#	Creating user name:	WinNT
#	Creation time:	15. 06. 2019 19:01

#	Modifying user name:	WinNT
#	Modification time:	15. 06. 2019 19:01

#	Program:	/corina/corina34_cracker 3.40 0067  02.08.2006

@<TRIPOS>MOLECULE
ASD01140581
  40   43    0    0    0
SMALL
NO_CHARGES


@<TRIPOS>ATOM
   1 C1            -0.0168     1.3880     0.0097 C.ar    
   2 C2             0.0021    -0.0041     0.0020 C.ar    
   3 C3             1.1958    -0.6897     0.0108 C.ar    
   4 C4             2.4020     0.0155     0.0273 C.ar    
   5 C5             2.3935     1.4047     0.0228 C.ar    
   6 C6             1.1813     2.1071     0.0021 C.ar    
   7 C7             3.6461    -0.6933     0.0493 C.1     
   8 C8             4.6660    -1.2744     0.0674 C.1     
   9 N9            -1.2587     2.0270     0.0582 N.pl3   
  10 C10            1.2396     3.5718    -0.0587 C.2     
  11 N11            0.5051     4.4171     0.5725 N.2     
  12 C12           -0.5348     3.9858     1.5139 C.3     
  13 C13            2.2700     4.1465    -0.9573 C.ar    
  14 C14            2.3919     5.5292    -1.0729 C.ar    
  15 C15            3.3591     6.0514    -1.9163 C.ar    
  16 C16            4.1717     5.1722    -2.6156 C.ar    
  17 C17            3.9948     3.8085    -2.4525 C.ar    
  18 N18            3.0716     3.3392    -1.6405 N.ar    
  19 N19           -3.3657     2.4467    -0.2257 N.2     
  20 C20           -2.4085     1.6238    -0.5481 C.2     
  21 C21           -1.5360     3.1630     0.7456 C.2     
  22 C22           -2.8634     3.4167     0.5845 C.2     
  23 C23           -3.6158     4.5339     1.1773 C.2     
  24 O24           -3.0479     5.3398     1.8883 O.2     
  25 O25           -4.9349     4.6636     0.9317 O.3     
  26 C26           -5.6128     5.7893     1.5494 C.3     
  27 H27           -0.9289    -0.5514    -0.0105 H       
  28 H28            1.2000    -1.7696     0.0052 H       
  29 H29            3.3274     1.9469     0.0356 H       
  30 H30            5.5782    -1.7942     0.0836 H       
  31 H31           -0.0897     3.3822     2.3049 H       
  32 H32           -1.0267     4.8573     1.9457 H       
  33 H33            1.7414     6.1849    -0.5132 H       
  34 H34            3.4772     7.1193    -2.0268 H       
  35 H35            4.9349     5.5472    -3.2814 H       
  36 H36            4.6259     3.1207    -2.9957 H       
  37 H37           -2.5106     0.7625    -1.1916 H       
  38 H38           -6.6666     5.7759     1.2711 H       
  39 H39           -5.5224     5.7176     2.6333 H       
  40 H40           -5.1585     6.7192     1.2075 H       
@<TRIPOS>BOND
   1    1    2 ar
   2    1    6 ar
   3    1    9 1
   4    2    3 ar
   5    2   27 1
   6    3    4 ar
   7    3   28 1
   8    4    5 ar
   9    4    7 1
  10    5    6 ar
  11    5   29 1
  12    6   10 1
  13    7    8 3
  14    8   30 1
  15    9   21 1
  16    9   20 1
  17   10   11 2
  18   10   13 1
  19   11   12 1
  20   12   21 1
  21   12   31 1
  22   12   32 1
  23   13   14 ar
  24   13   18 ar
  25   14   15 ar
  26   14   33 1
  27   15   16 ar
  28   15   34 1
  29   16   17 ar
  30   16   35 1
  31   17   18 ar
  32   17   36 1
  33   19   20 2
  34   19   22 1
  35   20   37 1
  36   21   22 2
  37   22   23 1
  38   23   24 2
  39   23   25 1
  40   25   26 1
  41   26   38 1
  42   26   39 1
  43   26   40 1

#	End of record

