#	Name: ASD01883050
#	Creating user name:	WinNT
#	Creation time:	15. 06. 2019 19:45

#	Modifying user name:	WinNT
#	Modification time:	15. 06. 2019 19:45

#	Program:	/corina/corina34_cracker 3.40 0067  02.08.2006

@<TRIPOS>MOLECULE
ASD01883050
  45   47    0    0    0
SMALL
NO_CHARGES


@<TRIPOS>ATOM
   1 C1            -0.4065     0.6867    -1.3035 C.2     
   2 C2            -0.2382    -0.5474    -0.6496 C.2     
   3 C3            -1.3772    -1.2070    -0.1460 C.2     
   4 C4            -2.6006    -0.6516    -0.2963 C.2     
   5 N5            -2.7639     0.5396    -0.9278 N.am    
   6 C6            -1.7135     1.2193    -1.4240 C.2     
   7 C7            -4.1106     1.0994    -1.0662 C.3     
   8 C8            -4.4225     1.9827     0.1435 C.3     
   9 C9             0.7215     1.3933    -1.8315 C.1     
  10 N10            1.6164     1.9539    -2.2504 N.1     
  11 O11           -1.8880     2.2872    -1.9860 O.2     
  12 C12           -5.8290     2.5673    -0.0010 C.3     
  13 C13            1.1053    -1.1402    -0.4945 C.ar    
  14 C14           -6.1409     3.4506     1.2087 C.3     
  15 C15            1.4902    -2.2248    -1.2907 C.ar    
  16 C16            2.7475    -2.7750    -1.1412 C.ar    
  17 C17            3.6280    -2.2531    -0.2028 C.ar    
  18 C18            3.2479    -1.1756     0.5901 C.ar    
  19 C19            1.9985    -0.6163     0.4440 C.ar    
  20 O20            4.8635    -2.7967    -0.0586 O.3     
  21 C21            5.8668    -2.3141    -0.8354 C.ar    
  22 F22            0.6331    -2.7326    -2.2033 F       
  23 C23            7.1296    -2.9032    -0.8194 C.ar    
  24 C24            8.1231    -2.3825    -1.6249 C.ar    
  25 N25            7.8876    -1.3418    -2.4011 N.ar    
  26 C26            6.7052    -0.7574    -2.4435 C.ar    
  27 C27            5.6587    -1.2213    -1.6732 C.ar    
  28 Cl28           7.4495    -4.2720     0.1994 Cl      
  29 H29           -1.2729    -2.1557     0.3594 H       
  30 H30           -3.4663    -1.1663     0.0938 H       
  31 H31           -4.1638     1.6973    -1.9760 H       
  32 H32           -4.8372     0.2887    -1.1212 H       
  33 H33           -4.3693     1.3848     1.0533 H       
  34 H34           -3.6959     2.7933     0.1985 H       
  35 H35           -5.8822     3.1652    -0.9108 H       
  36 H36           -6.5556     1.7567    -0.0559 H       
  37 H37           -7.1429     3.8671     1.1058 H       
  38 H38           -6.0877     2.8527     2.1185 H       
  39 H39           -5.4143     4.2613     1.2637 H       
  40 H40            3.0464    -3.6123    -1.7544 H       
  41 H41            3.9362    -0.7738     1.3190 H       
  42 H42            1.7054     0.2205     1.0608 H       
  43 H43            9.1050    -2.8324    -1.6191 H       
  44 H44            6.5524     0.0896    -3.0959 H       
  45 H45            4.6937    -0.7380    -1.7129 H       
@<TRIPOS>BOND
   1    1    2 2
   2    1    9 1
   3    1    6 1
   4    2    3 1
   5    2   13 1
   6    3    4 2
   7    3   29 1
   8    4    5 1
   9    4   30 1
  10    5    7 1
  11    5    6 am
  12    6   11 2
  13    7    8 1
  14    7   31 1
  15    7   32 1
  16    8   12 1
  17    8   33 1
  18    8   34 1
  19    9   10 3
  20   12   14 1
  21   12   35 1
  22   12   36 1
  23   13   15 ar
  24   13   19 ar
  25   14   37 1
  26   14   38 1
  27   14   39 1
  28   15   16 ar
  29   15   22 1
  30   16   17 ar
  31   16   40 1
  32   17   18 ar
  33   17   20 1
  34   18   19 ar
  35   18   41 1
  36   19   42 1
  37   20   21 1
  38   21   23 ar
  39   21   27 ar
  40   23   24 ar
  41   23   28 1
  42   24   25 ar
  43   24   43 1
  44   25   26 ar
  45   26   27 ar
  46   26   44 1
  47   27   45 1

#	End of record

