#	Name: ASD02500290
#	Creating user name:	WinNT
#	Creation time:	15. 06. 2019 20:22

#	Modifying user name:	WinNT
#	Modification time:	15. 06. 2019 20:22

#	Program:	/corina/corina34_cracker 3.40 0067  02.08.2006

@<TRIPOS>MOLECULE
ASD02500290
  67   71    0    0    0
SMALL
NO_CHARGES


@<TRIPOS>ATOM
   1 N1            -3.2660     5.6979    -0.3128 N.ar    
   2 C2            -4.3500     6.3733    -0.6078 C.ar    
   3 C3            -5.5224     6.2381     0.1329 C.ar    
   4 C4            -5.5614     5.3835     1.1975 C.ar    
   5 C5            -4.3955     4.6594     1.5110 C.ar    
   6 C6            -4.3598     3.7630     2.5908 C.ar    
   7 C7            -3.2124     3.0815     2.8619 C.ar    
   8 C8            -2.0723     3.2623     2.0819 C.ar    
   9 C9            -2.0718     4.1233     1.0278 C.ar    
  10 C10           -3.2370     4.8450     0.7162 C.ar    
  11 S11           -0.6156     4.3334     0.0582 S.o2    
  12 O12           -0.3874     5.7334    -0.0250 O.2     
  13 O13            0.3433     3.4187     0.5711 O.2     
  14 N14           -0.9717     3.8255    -1.4773 N.am    
  15 C15           -1.2111     2.4786    -1.7261 C.ar    
  16 C16           -0.8511     1.9237    -2.9513 C.ar    
  17 C17           -1.0868     0.5913    -3.2006 C.ar    
  18 C18           -1.6884    -0.2057    -2.2220 C.ar    
  19 C19           -2.0486     0.3543    -0.9930 C.ar    
  20 C20           -1.8051     1.6865    -0.7476 C.ar    
  21 C21           -0.2032     2.7836    -4.0058 C.3     
  22 F22            0.0640     2.0091    -5.1397 F       
  23 F23           -1.0657     3.8304    -4.3486 F       
  24 F24            0.9937     3.3097    -3.5078 F       
  25 C25           -1.9429    -1.6346    -2.4861 C.2     
  26 O26           -2.3703    -1.9860    -3.5689 O.2     
  27 N27           -1.7016    -2.5505    -1.5273 N.am    
  28 C28           -1.8632    -3.9846    -1.8052 C.3     
  29 C29           -0.5497    -4.7005    -1.4667 C.3     
  30 N30           -0.1198    -4.2831    -0.1248 N.am    
  31 C31            0.0418    -2.8491     0.1531 C.3     
  32 C32           -1.2662    -2.1335    -0.1870 C.3     
  33 C33            0.1215    -5.1991     0.8340 C.2     
  34 C34            0.6627    -4.7748     2.1413 C.ar    
  35 C35            0.0198    -5.1530     3.3229 C.ar    
  36 C36            0.5356    -4.7496     4.5465 C.ar    
  37 C37            1.6842    -3.9742     4.5934 C.ar    
  38 C38            2.3211    -3.5990     3.4236 C.ar    
  39 C39            1.8225    -3.9988     2.2017 C.ar    
  40 O40           -0.1062    -6.3744     0.6229 O.2     
  41 O41           -0.0856    -5.1145     5.6995 O.3     
  42 C42            0.5001    -4.6641     6.9227 C.3     
  43 F43           -1.0996    -5.9078     3.2744 F       
  44 H44           -4.3338     7.0529    -1.4470 H       
  45 H45           -6.3994     6.8090    -0.1344 H       
  46 H46           -6.4615     5.2666     1.7827 H       
  47 H47           -5.2370     3.6149     3.2031 H       
  48 H48           -3.1858     2.3921     3.6928 H       
  49 H49           -1.1743     2.7107     2.3178 H       
  50 H50           -1.0132     4.4677    -2.2031 H       
  51 H51           -0.8076     0.1615    -4.1513 H       
  52 H52           -2.5134    -0.2588    -0.2350 H       
  53 H53           -2.0788     2.1187     0.2035 H       
  54 H54           -2.6684    -4.3878    -1.1911 H       
  55 H55           -2.0970    -4.1287    -2.8600 H       
  56 H56           -0.7065    -5.7790    -1.4816 H       
  57 H57            0.2134    -4.4291    -2.1962 H       
  58 H58            0.2757    -2.7049     1.2080 H       
  59 H59            0.8470    -2.4459    -0.4610 H       
  60 H60           -1.1059    -1.0554    -0.1734 H       
  61 H61           -2.0279    -2.4018     0.5450 H       
  62 H62            2.0832    -3.6614     5.5470 H       
  63 H63            3.2148    -2.9944     3.4680 H       
  64 H64            2.3259    -3.7080     1.2916 H       
  65 H65           -0.0926    -5.0241     7.7636 H       
  66 H66            1.5163    -5.0502     7.0027 H       
  67 H67            0.5234    -3.5744     6.9347 H       
@<TRIPOS>BOND
   1    1    2 ar
   2    1   10 ar
   3    2    3 ar
   4    2   44 1
   5    3    4 ar
   6    3   45 1
   7    4    5 ar
   8    4   46 1
   9    5    6 ar
  10    5   10 ar
  11    6    7 ar
  12    6   47 1
  13    7    8 ar
  14    7   48 1
  15    8    9 ar
  16    8   49 1
  17    9   10 ar
  18    9   11 1
  19   11   12 2
  20   11   13 2
  21   11   14 am
  22   14   15 1
  23   14   50 1
  24   15   16 ar
  25   15   20 ar
  26   16   17 ar
  27   16   21 1
  28   17   18 ar
  29   17   51 1
  30   18   19 ar
  31   18   25 1
  32   19   20 ar
  33   19   52 1
  34   20   53 1
  35   21   22 1
  36   21   23 1
  37   21   24 1
  38   25   26 2
  39   25   27 am
  40   27   28 1
  41   27   32 1
  42   28   29 1
  43   28   54 1
  44   28   55 1
  45   29   30 1
  46   29   56 1
  47   29   57 1
  48   30   31 1
  49   30   33 am
  50   31   32 1
  51   31   58 1
  52   31   59 1
  53   32   60 1
  54   32   61 1
  55   33   34 1
  56   33   40 2
  57   34   35 ar
  58   34   39 ar
  59   35   36 ar
  60   35   43 1
  61   36   37 ar
  62   36   41 1
  63   37   38 ar
  64   37   62 1
  65   38   39 ar
  66   38   63 1
  67   39   64 1
  68   41   42 1
  69   42   65 1
  70   42   66 1
  71   42   67 1

#	End of record

