#	Name: ASD01810042
#	Creating user name:	WinNT
#	Creation time:	15. 06. 2019 19:23

#	Modifying user name:	WinNT
#	Modification time:	15. 06. 2019 19:23

#	Program:	/corina/corina34_cracker 3.40 0067  02.08.2006

@<TRIPOS>MOLECULE
ASD01810042
  90   93    0    0    0
SMALL
NO_CHARGES


@<TRIPOS>ATOM
   1 C1             2.1704     0.3584     3.1050 C.3     
   2 N2             1.7746    -0.8755     2.4131 N.4     
   3 C3             2.5390    -2.0072     2.9544 C.3     
   4 C4             0.3392    -1.1121     2.6165 C.3     
   5 C5             2.0500    -0.7411     0.9764 C.3     
   6 C6             3.5451    -0.4947     0.7646 C.3     
   7 C7             3.8320    -0.3547    -0.7318 C.3     
   8 C8             5.3271    -0.1082    -0.9436 C.3     
   9 C9             5.6139     0.0317    -2.4399 C.3     
  10 C10            7.1090     0.2782    -2.6517 C.3     
  11 N11            7.3844     0.4126    -4.0884 N.4     
  12 C12            8.8199     0.6492    -4.2918 C.3     
  13 C13            9.2152     0.2054    -5.7016 C.3     
  14 C14           10.6606     0.6223    -5.9810 C.3     
  15 N15           11.0391     0.1973    -7.3310 N.am    
  16 C16            6.9887    -0.8213    -4.7804 C.3     
  17 C17            6.6200     1.5443    -4.6298 C.3     
  18 C18            0.0632    -1.2468     4.0561 C.1     
  19 C19           -0.1569    -1.3542     5.2042 C.1     
  20 C20           -0.4329    -1.4889     6.6439 C.3     
  21 N21           -1.8644    -1.7249     6.8467 N.am    
  22 C22            9.0931    -1.3158    -5.8104 C.3     
  23 C23            8.2873     0.8659    -6.7232 C.3     
  24 C24           10.8260     1.0398    -8.3596 C.2     
  25 C25           11.1927     0.6489    -9.7287 C.ar    
  26 C26           11.7709    -0.6236    -9.9390 C.ar    
  27 C27           11.9809    -1.4828    -8.8366 C.ar    
  28 C28           11.5923    -1.0192    -7.4965 C.2     
  29 C29           12.1349    -1.0330   -11.2388 C.ar    
  30 C30           12.7077    -2.3046   -11.4153 C.ar    
  31 C31           12.9033    -3.1215   -10.3388 C.ar    
  32 C32           12.5485    -2.7297    -9.0533 C.ar    
  33 C33           10.9910     1.4850   -10.8169 C.ar    
  34 C34           11.3548     1.0704   -12.0928 C.ar    
  35 C35           11.9132    -0.1557   -12.3146 C.ar    
  36 O36           11.7642    -1.7415    -6.5333 O.2     
  37 O37           10.3271     2.1299    -8.1550 O.2     
  38 O38           -2.7701    -0.7499     7.3266 O.3     
  39 C39           -3.9419    -1.4351     7.8083 C.3     
  40 C40           -3.9435    -2.7311     6.9655 C.3     
  41 C41           -2.4817    -2.8959     6.5936 C.2     
  42 O42           -1.9622    -3.9004     6.1555 O.2     
  43 H43            3.2355     0.5340     2.9541 H       
  44 H44            1.6032     1.1981     2.7034 H       
  45 H45            1.9660     0.2587     4.1711 H       
  46 H46            2.3346    -2.1069     4.0205 H       
  47 H47            2.2454    -2.9227     2.4410 H       
  48 H48            3.6041    -1.8316     2.8035 H       
  49 H49           -0.2280    -0.2725     2.2148 H       
  50 H50            0.0455    -2.0277     2.1030 H       
  51 H51            1.7564    -1.6567     0.4630 H       
  52 H52            1.4829     0.0986     0.5747 H       
  53 H53            3.8388     0.4209     1.2780 H       
  54 H54            4.1123    -1.3344     1.1663 H       
  55 H55            3.5383    -1.2703    -1.2452 H       
  56 H56            3.2648     0.4850    -1.1334 H       
  57 H57            5.6207     0.8073    -0.4301 H       
  58 H58            5.8942    -0.9479    -0.5419 H       
  59 H59            5.3203    -0.8838    -2.9533 H       
  60 H60            5.0467     0.8714    -2.8416 H       
  61 H61            7.4026     1.1938    -2.1383 H       
  62 H62            7.6761    -0.5615    -2.2501 H       
  63 H63            9.0336     1.7113    -4.1719 H       
  64 H64            9.3896     0.0789    -3.5582 H       
  65 H65           10.7476     1.7060    -5.9035 H       
  66 H66           11.3216     0.1517    -5.2532 H       
  67 H67            5.9627    -1.0746    -4.5133 H       
  68 H68            7.0573    -0.6717    -5.8579 H       
  69 H69            7.6524    -1.6333    -4.4834 H       
  70 H70            6.9954     2.4740    -4.2021 H       
  71 H71            6.7308     1.5722    -5.7138 H       
  72 H72            5.5668     1.4263    -4.3751 H       
  73 H73            0.1343    -2.3286     7.0455 H       
  74 H74           -0.1392    -0.5733     7.1573 H       
  75 H75            8.0671    -1.5806    -6.0661 H       
  76 H76            9.7664    -1.6798    -6.5865 H       
  77 H77            9.3588    -1.7708    -4.8562 H       
  78 H78            8.0745     1.8888    -6.4127 H       
  79 H79            8.7708     0.8759    -7.7001 H       
  80 H80            7.3556     0.3035    -6.7847 H       
  81 H81           12.9929    -2.6357   -12.4030 H       
  82 H82           13.3438    -4.0959   -10.4900 H       
  83 H83           12.7158    -3.3976    -8.2212 H       
  84 H84           10.5500     2.4602   -10.6727 H       
  85 H85           11.1909     1.7338   -12.9291 H       
  86 H86           12.1864    -0.4510   -13.3169 H       
  87 H87           -3.8473    -1.6639     8.8698 H       
  88 H88           -4.8398    -0.8477     7.6166 H       
  89 H89           -4.2914    -3.5768     7.5587 H       
  90 H90           -4.5540    -2.6088     6.0708 H       
@<TRIPOS>BOND
   1    1    2 1
   2    1   43 1
   3    1   44 1
   4    1   45 1
   5    2    3 1
   6    2    4 1
   7    2    5 1
   8    3   46 1
   9    3   47 1
  10    3   48 1
  11    4   18 1
  12    4   49 1
  13    4   50 1
  14    5    6 1
  15    5   51 1
  16    5   52 1
  17    6    7 1
  18    6   53 1
  19    6   54 1
  20    7    8 1
  21    7   55 1
  22    7   56 1
  23    8    9 1
  24    8   57 1
  25    8   58 1
  26    9   10 1
  27    9   59 1
  28    9   60 1
  29   10   11 1
  30   10   61 1
  31   10   62 1
  32   11   12 1
  33   11   16 1
  34   11   17 1
  35   12   13 1
  36   12   63 1
  37   12   64 1
  38   13   14 1
  39   13   22 1
  40   13   23 1
  41   14   15 1
  42   14   65 1
  43   14   66 1
  44   15   24 am
  45   15   28 am
  46   16   67 1
  47   16   68 1
  48   16   69 1
  49   17   70 1
  50   17   71 1
  51   17   72 1
  52   18   19 3
  53   19   20 1
  54   20   21 1
  55   20   73 1
  56   20   74 1
  57   21   38 1
  58   21   41 am
  59   22   75 1
  60   22   76 1
  61   22   77 1
  62   23   78 1
  63   23   79 1
  64   23   80 1
  65   24   25 1
  66   24   37 2
  67   25   26 ar
  68   25   33 ar
  69   26   27 ar
  70   26   29 ar
  71   27   28 1
  72   27   32 ar
  73   28   36 2
  74   29   30 ar
  75   29   35 ar
  76   30   31 ar
  77   30   81 1
  78   31   32 ar
  79   31   82 1
  80   32   83 1
  81   33   34 ar
  82   33   84 1
  83   34   35 ar
  84   34   85 1
  85   35   86 1
  86   38   39 1
  87   39   40 1
  88   39   87 1
  89   39   88 1
  90   40   41 1
  91   40   89 1
  92   40   90 1
  93   41   42 2

#	End of record

