#	Name: ASD05720200
#	Creating user name:	WinNT
#	Creation time:	15. 06. 2019 21:02

#	Modifying user name:	WinNT
#	Modification time:	15. 06. 2019 21:02

#	Program:	/corina/corina34_cracker 3.40 0067  02.08.2006

@<TRIPOS>MOLECULE
ASD05720200
  77   82    0    0    0
SMALL
NO_CHARGES


@<TRIPOS>ATOM
   1 O1            -0.0161     1.3334     0.0094 O.3     
   2 C2             0.0021    -0.0041     0.0020 C.2     
   3 N3             1.2348    -0.5293    -0.0126 N.am    
   4 C4             2.2183     0.5645    -0.0161 C.3     
   5 C5             1.3508     1.8379    -0.0010 C.3     
   6 O6            -1.0069    -0.6808     0.0084 O.2     
   7 C7             3.0997    -3.5830    -0.0446 C.2     
   8 N8             2.7934    -2.2820    -0.0358 N.2     
   9 C9             1.5348    -1.8852    -0.0220 C.2     
  10 C10            0.4948    -2.8369    -0.0165 C.2     
  11 C11            0.8012    -4.1542    -0.0253 C.2     
  12 N12            2.1144    -4.5345    -0.0395 N.pl3   
  13 N13            2.7294    -5.7914    -0.0515 N.2     
  14 C14            4.0306    -5.6364    -0.0634 C.2     
  15 C15            4.3226    -4.2670    -0.0650 C.2     
  16 C16            5.6706    -3.6561    -0.0831 C.ar    
  17 C17            6.6407    -4.0788     0.8272 C.ar    
  18 C18            7.8966    -3.5089     0.8095 C.ar    
  19 C19            8.1963    -2.5093    -0.1195 C.ar    
  20 C20            7.2260    -2.0883    -1.0281 C.ar    
  21 C21            5.9737    -2.6612    -1.0144 C.ar    
  22 N22           11.2830    -0.6691    -0.6320 N.pl3   
  23 N23            9.9472    -0.9508    -0.9614 N.2     
  24 C24            9.5460    -1.8958    -0.1389 C.2     
  25 N25           10.5598    -2.2120     0.6787 N.2     
  26 C26           11.6046    -1.4818     0.3903 C.2     
  27 C27           12.1567     0.3128    -1.2791 C.3     
  28 O28           13.4403     0.2949    -0.6514 O.3     
  29 C29           14.3736     1.2215    -1.2104 C.3     
  30 C30           15.7057     1.1160    -0.4651 C.3     
  31 Si31          16.9224     2.3239    -1.1939 Si      
  32 C32           16.2537     4.0549    -1.0286 C.3     
  33 C33           18.5443     2.1955    -0.2864 C.3     
  34 C34           17.1859     1.9294    -2.9954 C.3     
  35 F35            8.8363    -3.9168     1.6903 F       
  36 C36            2.4559     0.5142    -2.5315 C.2     
  37 C37            3.0621     0.5136    -1.2636 C.2     
  38 C38            4.4224     0.4669    -1.1741 C.2     
  39 C39            5.1854     0.4206    -2.3493 C.2     
  40 C40            4.5702     0.4225    -3.5549 C.2     
  41 N41            3.2161     0.4690    -3.6420 N.am    
  42 O42            1.2395     0.5506    -2.6260 O.2     
  43 C43            2.5748     0.4695    -4.9592 C.3     
  44 C44            2.4021     1.9111    -5.4417 C.3     
  45 H45            2.8457     0.5180     0.8740 H       
  46 H46            1.5314     2.4339    -0.8956 H       
  47 H47            1.5485     2.4243     0.8964 H       
  48 H48           -0.5367    -2.5172    -0.0049 H       
  49 H49            0.0174    -4.8972    -0.0209 H       
  50 H50            4.7584    -6.4342    -0.0738 H       
  51 H51            6.4080    -4.8513     1.5451 H       
  52 H52            7.4581    -1.3156    -1.7461 H       
  53 H53            5.2243    -2.3375    -1.7215 H       
  54 H54           12.5623    -1.5238     0.8878 H       
  55 H55           12.2649     0.0631    -2.3346 H       
  56 H56           11.7195     1.3067    -1.1838 H       
  57 H57           14.5278     0.9906    -2.2645 H       
  58 H58           13.9824     2.2342    -1.1137 H       
  59 H59           15.5515     1.3468     0.5890 H       
  60 H60           16.0969     0.1032    -0.5618 H       
  61 H61           16.0996     4.2858     0.0254 H       
  62 H62           16.9656     4.7617    -1.4550 H       
  63 H63           15.3048     4.1301    -1.5596 H       
  64 H64           18.9356     1.1827    -0.3830 H       
  65 H65           19.2562     2.9022    -0.7127 H       
  66 H66           18.3902     2.4264     0.7677 H       
  67 H67           16.2369     2.0045    -3.5264 H       
  68 H68           17.8978     2.6361    -3.4218 H       
  69 H69           17.5771     0.9166    -3.0921 H       
  70 H70            4.9063     0.4660    -0.2085 H       
  71 H71            6.2633     0.3837    -2.2927 H       
  72 H72            5.1627     0.3867    -4.4571 H       
  73 H73            3.1973    -0.0783    -5.6666 H       
  74 H74            1.5982    -0.0093    -4.8880 H       
  75 H75            3.3787     2.3899    -5.5130 H       
  76 H76            1.9249     1.9115    -6.4218 H       
  77 H77            1.7796     2.4590    -4.7343 H       
@<TRIPOS>BOND
   1    1    2 1
   2    1    5 1
   3    2    3 am
   4    2    6 2
   5    3    4 1
   6    3    9 1
   7    4    5 1
   8    4   37 1
   9    4   45 1
  10    5   46 1
  11    5   47 1
  12    7    8 1
  13    7   12 1
  14    7   15 2
  15    8    9 2
  16    9   10 1
  17   10   11 2
  18   10   48 1
  19   11   12 1
  20   11   49 1
  21   12   13 1
  22   13   14 2
  23   14   15 1
  24   14   50 1
  25   15   16 1
  26   16   17 ar
  27   16   21 ar
  28   17   18 ar
  29   17   51 1
  30   18   19 ar
  31   18   35 1
  32   19   20 ar
  33   19   24 1
  34   20   21 ar
  35   20   52 1
  36   21   53 1
  37   22   23 1
  38   22   26 1
  39   22   27 1
  40   23   24 2
  41   24   25 1
  42   25   26 2
  43   26   54 1
  44   27   28 1
  45   27   55 1
  46   27   56 1
  47   28   29 1
  48   29   30 1
  49   29   57 1
  50   29   58 1
  51   30   31 1
  52   30   59 1
  53   30   60 1
  54   31   32 1
  55   31   33 1
  56   31   34 1
  57   32   61 1
  58   32   62 1
  59   32   63 1
  60   33   64 1
  61   33   65 1
  62   33   66 1
  63   34   67 1
  64   34   68 1
  65   34   69 1
  66   36   37 1
  67   36   41 am
  68   36   42 2
  69   37   38 2
  70   38   39 1
  71   38   70 1
  72   39   40 2
  73   39   71 1
  74   40   41 1
  75   40   72 1
  76   41   43 1
  77   43   44 1
  78   43   73 1
  79   43   74 1
  80   44   75 1
  81   44   76 1
  82   44   77 1

#	End of record

