#	Name: ASD01478016
#	Creating user name:	WinNT
#	Creation time:	15. 06. 2019 19:21

#	Modifying user name:	WinNT
#	Modification time:	15. 06. 2019 19:21

#	Program:	/corina/corina34_cracker 3.40 0067  02.08.2006

@<TRIPOS>MOLECULE
ASD01478016
  80   83    0    0    0
SMALL
NO_CHARGES


@<TRIPOS>ATOM
   1 C1             1.5820     1.3574     1.9364 C.3     
   2 C2             3.0024     2.1498     0.1898 C.2     
   3 O3             2.7957     2.0339     1.5151 O.3     
   4 N4             4.1096     2.7669    -0.2682 N.am    
   5 O5             2.1907     1.6980    -0.5935 O.2     
   6 C6             3.6052     4.1320    -2.2338 C.3     
   7 C7             4.3345     2.8930    -1.7103 C.3     
   8 C8             5.8337     3.0307    -1.9826 C.3     
   9 C9             6.0794     3.0371    -3.4927 C.3     
  10 N10            7.5210     3.0209    -3.7531 N.am    
  11 S11            8.2967     1.5838    -4.0276 S.o2    
  12 C12            8.2448     1.2864    -5.7636 C.ar    
  13 C13            9.2618     1.7549    -6.5747 C.ar    
  14 C14            9.2235     1.5231    -7.9360 C.ar    
  15 C15            8.1635     0.8195    -8.4891 C.ar    
  16 C16            7.1442     0.3505    -7.6731 C.ar    
  17 C17            7.1901     0.5801    -6.3116 C.ar    
  18 O18            9.6624     1.7955    -3.6974 O.2     
  19 O19            7.4984     0.5751    -3.4237 O.2     
  20 C20            8.2763     4.2760    -3.7705 C.3     
  21 C21            7.7843     5.1513    -4.9249 C.3     
  22 C22            8.4653     6.5195    -4.8536 C.3     
  23 C23            8.1271     4.4797    -6.2562 C.3     
  24 O24            6.3102     4.2536    -1.4173 O.3     
  25 C25            1.8450    -0.1528     2.0888 C.3     
  26 O26            2.7609    -0.4334     3.1414 O.3     
  27 C27            2.4629     0.1199     4.4363 C.3     
  28 C28            2.3689     1.6199     4.2494 C.3     
  29 C29            1.1546     1.8593     3.2988 C.3     
  30 C30            1.9229     2.4618     5.4439 C.3     
  31 O31            1.3689     3.6548     4.8313 O.3     
  32 C32            0.9289     3.3513     3.4871 C.3     
  33 O33            8.1233     0.5906    -9.8281 O.3     
  34 C34            7.0018    -0.1406   -10.3278 C.3     
  35 C35            2.1183     3.9434    -2.0771 C.ar    
  36 C36            1.4888     4.3484    -0.9150 C.ar    
  37 C37            0.1249     4.1753    -0.7713 C.ar    
  38 C38           -0.6096     3.5976    -1.7899 C.ar    
  39 C39            0.0197     3.1934    -2.9524 C.ar    
  40 C40            1.3830     3.3705    -3.0979 C.ar    
  41 H41            0.7885     1.5267     1.2084 H       
  42 H42            4.7576     3.1276     0.3571 H       
  43 H43            3.9222     5.0070    -1.6663 H       
  44 H44            3.8442     4.2762    -3.2874 H       
  45 H45            3.9532     2.0061    -2.2164 H       
  46 H46            6.3634     2.1914    -1.5319 H       
  47 H47            5.6196     2.1555    -3.9393 H       
  48 H48            5.6416     3.9353    -3.9282 H       
  49 H49           10.0867     2.3029    -6.1437 H       
  50 H50           10.0180     1.8895    -8.5692 H       
  51 H51            6.3179    -0.1975    -8.1013 H       
  52 H52            6.3969     0.2152    -5.6759 H       
  53 H53            8.1288     4.8019    -2.8273 H       
  54 H54            9.3363     4.0603    -3.9044 H       
  55 H55            6.7043     5.2786    -4.8496 H       
  56 H56            9.5452     6.3922    -4.9289 H       
  57 H57            8.1147     7.1431    -5.6760 H       
  58 H58            8.2211     6.9980    -3.9052 H       
  59 H59            9.2075     4.3587    -6.3345 H       
  60 H60            7.6475     3.5021    -6.3040 H       
  61 H61            7.7704     5.1000    -7.0785 H       
  62 H62            5.9475     5.0472    -1.8341 H       
  63 H63            0.9014    -0.6573     2.2966 H       
  64 H64            2.2519    -0.5374     1.1536 H       
  65 H65            1.5132    -0.2717     4.8007 H       
  66 H66            3.2615    -0.1201     5.1382 H       
  67 H67            3.2878     2.0117     3.8133 H       
  68 H68            0.2904     1.2946     3.6487 H       
  69 H69            1.1607     1.9370     6.0198 H       
  70 H70            2.7752     2.7148     6.0745 H       
  71 H71            1.5179     3.9144     2.7631 H       
  72 H72           -0.1294     3.5878     3.3761 H       
  73 H73            6.0836     0.3987   -10.0952 H       
  74 H74            7.0935    -0.2529   -11.4081 H       
  75 H75            6.9730    -1.1253    -9.8613 H       
  76 H76            2.0627     4.7997    -0.1191 H       
  77 H77           -0.3668     4.4911     0.1370 H       
  78 H78           -1.6751     3.4617    -1.6773 H       
  79 H79           -0.5541     2.7417    -3.7481 H       
  80 H80            1.8741     3.0581    -4.0076 H       
@<TRIPOS>BOND
   1    1   25 1
   2    1    3 1
   3    1   29 1
   4    1   41 1
   5    2    3 1
   6    2    4 am
   7    2    5 2
   8    4    7 1
   9    4   42 1
  10    6    7 1
  11    6   35 1
  12    6   43 1
  13    6   44 1
  14    7    8 1
  15    7   45 1
  16    8    9 1
  17    8   24 1
  18    8   46 1
  19    9   10 1
  20    9   47 1
  21    9   48 1
  22   10   11 am
  23   10   20 1
  24   11   12 1
  25   11   18 2
  26   11   19 2
  27   12   13 ar
  28   12   17 ar
  29   13   14 ar
  30   13   49 1
  31   14   15 ar
  32   14   50 1
  33   15   16 ar
  34   15   33 1
  35   16   17 ar
  36   16   51 1
  37   17   52 1
  38   20   21 1
  39   20   53 1
  40   20   54 1
  41   21   22 1
  42   21   23 1
  43   21   55 1
  44   22   56 1
  45   22   57 1
  46   22   58 1
  47   23   59 1
  48   23   60 1
  49   23   61 1
  50   24   62 1
  51   25   26 1
  52   25   63 1
  53   25   64 1
  54   26   27 1
  55   27   28 1
  56   27   65 1
  57   27   66 1
  58   28   29 1
  59   28   30 1
  60   28   67 1
  61   29   32 1
  62   29   68 1
  63   30   31 1
  64   30   69 1
  65   30   70 1
  66   31   32 1
  67   32   71 1
  68   32   72 1
  69   33   34 1
  70   34   73 1
  71   34   74 1
  72   34   75 1
  73   35   36 ar
  74   35   40 ar
  75   36   37 ar
  76   36   76 1
  77   37   38 ar
  78   37   77 1
  79   38   39 ar
  80   38   78 1
  81   39   40 ar
  82   39   79 1
  83   40   80 1

#	End of record

