#	Name: ASD08150506
#	Creating user name:	WinNT
#	Creation time:	15. 06. 2019 21:16

#	Modifying user name:	WinNT
#	Modification time:	15. 06. 2019 21:16

#	Program:	/corina/corina34_cracker 3.40 0067  02.08.2006

@<TRIPOS>MOLECULE
ASD08150506
  43   47    0    0    0
SMALL
NO_CHARGES


@<TRIPOS>ATOM
   1 N1             0.4844     2.1359     1.7654 N.am    
   2 C2             0.7586     1.1980     2.6927 C.2     
   3 C3             1.9720     0.4812     2.6603 C.2     
   4 C4             2.8858     0.7288     1.6876 C.2     
   5 C5             2.6008     1.7149     0.7103 C.ar    
   6 C6             3.5142     2.0099    -0.3201 C.ar    
   7 N7             3.2487     2.9196    -1.2204 N.ar    
   8 C8             2.1033     3.6190    -1.2173 C.ar    
   9 C9             1.1268     3.3883    -0.2179 C.ar    
  10 C10            1.3835     2.4105     0.7711 C.ar    
  11 C11           -0.2727     5.0698    -1.2077 C.ar    
  12 C12            0.6929     5.2932    -2.1918 C.ar    
  13 C13            1.8573     4.5880    -2.2028 C.ar    
  14 O14           -0.0535     0.9661     3.5720 O.2     
  15 C15           -0.7307     2.8301     1.8159 C.ar    
  16 C16           -1.8506     2.3186     1.1741 C.ar    
  17 C17           -3.0497     3.0058     1.2258 C.ar    
  18 C18           -3.1326     4.2045     1.9184 C.ar    
  19 C19           -2.0159     4.7149     2.5580 C.ar    
  20 C20           -0.8184     4.0282     2.5131 C.ar    
  21 C21           -0.0633     4.1246    -0.2247 C.ar    
  22 N22           -1.4634     5.8105    -1.2193 N.pl3   
  23 F23           -4.3043     4.8752     1.9684 F       
  24 C24           -1.6000     7.1282    -1.5722 C.2     
  25 C25           -2.9049     7.4338    -1.4411 C.2     
  26 N26           -3.5517     6.3368    -1.0202 N.2     
  27 C27           -2.7001     5.3564    -0.8888 C.2     
  28 F28           -4.1401     2.5096     0.6014 F       
  29 C29           -3.5305     8.7763    -1.7193 C.3     
  30 H30            2.1754    -0.2670     3.4120 H       
  31 H31            3.8170     0.1824     1.6590 H       
  32 H32            4.4513     1.4751    -0.3671 H       
  33 H33            0.5130     6.0357    -2.9552 H       
  34 H34            2.5933     4.7746    -2.9709 H       
  35 H35           -1.7852     1.3853     0.6346 H       
  36 H36           -2.0823     5.6488     3.0962 H       
  37 H37            0.0520     4.4273     3.0125 H       
  38 H38           -0.8127     3.9540     0.5340 H       
  39 H39           -0.8123     7.7935    -1.8936 H       
  40 H40           -2.9378     4.3539    -0.5650 H       
  41 H41           -3.8445     8.8218    -2.7621 H       
  42 H42           -4.3970     8.9144    -1.0726 H       
  43 H43           -2.8024     9.5638    -1.5243 H       
@<TRIPOS>BOND
   1    1    2 am
   2    1   10 1
   3    1   15 1
   4    2    3 1
   5    2   14 2
   6    3    4 2
   7    3   30 1
   8    4    5 1
   9    4   31 1
  10    5    6 ar
  11    5   10 ar
  12    6    7 ar
  13    6   32 1
  14    7    8 ar
  15    8    9 ar
  16    8   13 ar
  17    9   10 ar
  18    9   21 ar
  19   11   12 ar
  20   11   22 1
  21   11   21 ar
  22   12   13 ar
  23   12   33 1
  24   13   34 1
  25   15   16 ar
  26   15   20 ar
  27   16   17 ar
  28   16   35 1
  29   17   18 ar
  30   17   28 1
  31   18   19 ar
  32   18   23 1
  33   19   20 ar
  34   19   36 1
  35   20   37 1
  36   21   38 1
  37   22   24 1
  38   22   27 1
  39   24   25 2
  40   24   39 1
  41   25   26 1
  42   25   29 1
  43   26   27 2
  44   27   40 1
  45   29   41 1
  46   29   42 1
  47   29   43 1

#	End of record

