#	Name: ASD04590094
#	Creating user name:	WinNT
#	Creation time:	15. 06. 2019 20:50

#	Modifying user name:	WinNT
#	Modification time:	15. 06. 2019 20:50

#	Program:	/corina/corina34_cracker 3.40 0067  02.08.2006

@<TRIPOS>MOLECULE
ASD04590094
  48   50    0    0    0
SMALL
NO_CHARGES


@<TRIPOS>ATOM
   1 C1             0.0495     1.4290     0.6736 C.2     
   2 C2             0.0274     0.0285     0.4466 C.2     
   3 C3             1.3534     1.7944     0.5509 C.2     
   4 N4             2.0575     0.6686     0.2671 N.pl3   
   5 N5             1.2704    -0.3448     0.2110 N.2     
   6 N6            -1.0433     2.2613     0.9584 N.am    
   7 C7            -0.8529     3.5817     1.1495 C.2     
   8 C8            -1.1610    -0.8450     0.4701 C.2     
   9 N9            -1.0313    -2.1657     0.2348 N.am    
  10 C10           -2.2116    -3.0332     0.2582 C.3     
  11 C11           -1.9540    -4.2711    -0.6054 C.3     
  12 C12           -3.1661    -5.2021    -0.5284 C.3     
  13 N13           -3.3943    -5.5961     0.8677 N.3     
  14 C14           -3.6906    -4.4284     1.7074 C.3     
  15 C15           -2.4941    -3.4742     1.6971 C.3     
  16 O16            0.2662     4.0518     1.0751 O.2     
  17 C17           -2.0021     4.4569     1.4490 C.ar    
  18 C18           -2.7104     5.0686     0.4090 C.ar    
  19 C19           -2.3935     4.6755     2.7743 C.ar    
  20 C20           -3.4713     5.4970     3.0459 C.ar    
  21 C21           -4.1624     6.1023     2.0120 C.ar    
  22 C22           -3.7859     5.8872     0.6986 C.ar    
  23 O23           -2.2576    -0.3735     0.7018 O.2     
  24 C24           -4.4638    -6.5985     0.9638 C.3     
  25 C25           -3.9224    -7.9645     0.5373 C.3     
  26 F26           -3.5882    -7.9304    -0.8207 F       
  27 F27           -2.7837    -8.2705     1.2903 F       
  28 F28           -2.3440     4.8602    -0.8746 F       
  29 F29           -1.7201     4.0849     3.7857 F       
  30 H30            1.7534     2.7918     0.6584 H       
  31 H31            3.0167     0.6346     0.1271 H       
  32 H32           -1.9360     1.8863     1.0178 H       
  33 H33           -0.1565    -2.5418     0.0500 H       
  34 H34           -3.0715    -2.4890    -0.1324 H       
  35 H35           -1.7944    -3.9664    -1.6397 H       
  36 H36           -1.0702    -4.7932    -0.2387 H       
  37 H37           -4.0467    -4.6840    -0.9081 H       
  38 H38           -2.9801    -6.0912    -1.1309 H       
  39 H39           -4.5687    -3.9139     1.3172 H       
  40 H40           -3.8854    -4.7555     2.7287 H       
  41 H41           -1.6188    -3.9838     2.1000 H       
  42 H42           -2.7204    -2.6002     2.3078 H       
  43 H43           -3.7750     5.6665     4.0684 H       
  44 H44           -5.0036     6.7430     2.2312 H       
  45 H45           -4.3310     6.3637    -0.1027 H       
  46 H46           -4.8189    -6.6536     1.9929 H       
  47 H47           -5.2881    -6.3141     0.3097 H       
  48 H48           -4.6842    -8.7258     0.7050 H       
@<TRIPOS>BOND
   1    1    2 1
   2    1    3 2
   3    1    6 1
   4    2    8 1
   5    2    5 2
   6    3    4 1
   7    3   30 1
   8    4    5 1
   9    4   31 1
  10    6    7 am
  11    6   32 1
  12    7   16 2
  13    7   17 1
  14    8    9 am
  15    8   23 2
  16    9   10 1
  17    9   33 1
  18   10   11 1
  19   10   15 1
  20   10   34 1
  21   11   12 1
  22   11   35 1
  23   11   36 1
  24   12   13 1
  25   12   37 1
  26   12   38 1
  27   13   14 1
  28   13   24 1
  29   14   15 1
  30   14   39 1
  31   14   40 1
  32   15   41 1
  33   15   42 1
  34   17   18 ar
  35   17   19 ar
  36   18   28 1
  37   18   22 ar
  38   19   20 ar
  39   19   29 1
  40   20   21 ar
  41   20   43 1
  42   21   22 ar
  43   21   44 1
  44   22   45 1
  45   24   25 1
  46   24   46 1
  47   24   47 1
  48   25   26 1
  49   25   27 1
  50   25   48 1

#	End of record

