#	Name: ASD01885368
#	Creating user name:	WinNT
#	Creation time:	15. 06. 2019 19:49

#	Modifying user name:	WinNT
#	Modification time:	15. 06. 2019 19:49

#	Program:	/corina/corina34_cracker 3.40 0067  02.08.2006

@<TRIPOS>MOLECULE
ASD01885368
  54   57    0    0    0
SMALL
NO_CHARGES


@<TRIPOS>ATOM
   1 C1             0.0361     1.1091     0.2559 C.ar    
   2 C2            -0.0428    -0.2487     0.2163 C.ar    
   3 C3             1.1044    -1.0372     0.2747 C.ar    
   4 C4             2.3391    -0.4688     0.3734 C.ar    
   5 C5             2.4589     0.9261     0.4164 C.ar    
   6 C6             1.2942     1.7330     0.3572 C.ar    
   7 C7             3.7265     1.5530     0.5189 C.ar    
   8 C8             3.7641     2.9402     0.5560 C.ar    
   9 C9             2.5682     3.6642     0.4920 C.ar    
  10 N10            1.3980     3.0616     0.3973 N.ar    
  11 C11            4.9709     0.7533     0.5847 C.ar    
  12 C12            2.6171     5.1457     0.5327 C.2     
  13 O13            3.6863     5.7160     0.6206 O.2     
  14 N14            1.4755     5.8595     0.4723 N.am    
  15 C15           -1.3925    -0.9102     0.1078 C.3     
  16 N16           -1.7372    -1.0902    -1.3087 N.3     
  17 C17           -2.9275    -1.9392    -1.4573 C.3     
  18 C18           -3.2995    -2.0367    -2.9387 C.3     
  19 N19           -2.1645    -2.5897    -3.6908 N.3     
  20 C20           -0.9743    -1.7407    -3.5422 C.3     
  21 C21           -0.6022    -1.6431    -2.0608 C.3     
  22 C22           -4.5142    -2.9529    -3.1007 C.3     
  23 F23           -5.5504    -2.5039    -2.2750 F       
  24 F24           -4.9384    -2.9335    -4.4337 F       
  25 F25           -4.1643    -4.2590    -2.7416 F       
  26 C26           -2.5093    -2.7697    -5.1074 C.3     
  27 C27            6.0395     1.0506    -0.2616 C.ar    
  28 C28            7.1964     0.3027    -0.1964 C.ar    
  29 C29            7.2986    -0.7427     0.7079 C.ar    
  30 C30            6.2398    -1.0419     1.5507 C.ar    
  31 C31            5.0808    -0.2963     1.4972 C.ar    
  32 F32            8.4338    -1.4727     0.7676 F       
  33 H33           -0.8625     1.7060     0.2055 H       
  34 H34            1.0139    -2.1129     0.2417 H       
  35 H35            3.2208    -1.0908     0.4187 H       
  36 H36            4.7093     3.4569     0.6339 H       
  37 H37            0.6219     5.4041     0.4021 H       
  38 H38            1.5074     6.8286     0.4989 H       
  39 H39           -1.3615    -1.8819     0.6006 H       
  40 H40           -2.1440    -0.2832     0.5878 H       
  41 H41           -2.7144    -2.9353    -1.0696 H       
  42 H42           -3.7574    -1.5023    -0.9020 H       
  43 H43           -3.5391    -1.0439    -3.3196 H       
  44 H44           -0.1443    -2.1776    -4.0976 H       
  45 H45           -1.1874    -0.7445    -3.9300 H       
  46 H46            0.2631    -0.9905    -1.9454 H       
  47 H47           -0.3627    -2.6359    -1.6799 H       
  48 H48           -2.9208    -1.8407    -5.5020 H       
  49 H49           -1.6137    -3.0374    -5.6681 H       
  50 H50           -3.2490    -3.5645    -5.2031 H       
  51 H51            5.9607     1.8647    -0.9668 H       
  52 H52            8.0240     0.5318    -0.8514 H       
  53 H53            6.3241    -1.8577     2.2534 H       
  54 H54            4.2580    -0.5274     2.1575 H       
@<TRIPOS>BOND
   1    1    2 ar
   2    1    6 ar
   3    1   33 1
   4    2    3 ar
   5    2   15 1
   6    3    4 ar
   7    3   34 1
   8    4    5 ar
   9    4   35 1
  10    5    7 ar
  11    5    6 ar
  12    6   10 ar
  13    7    8 ar
  14    7   11 1
  15    8    9 ar
  16    8   36 1
  17    9   10 ar
  18    9   12 1
  19   11   27 ar
  20   11   31 ar
  21   12   13 2
  22   12   14 am
  23   14   37 1
  24   14   38 1
  25   15   16 1
  26   15   39 1
  27   15   40 1
  28   16   17 1
  29   16   21 1
  30   17   18 1
  31   17   41 1
  32   17   42 1
  33   18   19 1
  34   18   22 1
  35   18   43 1
  36   19   20 1
  37   19   26 1
  38   20   21 1
  39   20   44 1
  40   20   45 1
  41   21   46 1
  42   21   47 1
  43   22   23 1
  44   22   24 1
  45   22   25 1
  46   26   48 1
  47   26   49 1
  48   26   50 1
  49   27   28 ar
  50   27   51 1
  51   28   29 ar
  52   28   52 1
  53   29   30 ar
  54   29   32 1
  55   30   31 ar
  56   30   53 1
  57   31   54 1

#	End of record

