#	Name: ASD01901038
#	Creating user name:	WinNT
#	Creation time:	15. 06. 2019 19:53

#	Modifying user name:	WinNT
#	Modification time:	15. 06. 2019 19:53

#	Program:	/corina/corina34_cracker 3.40 0067  02.08.2006

@<TRIPOS>MOLECULE
ASD01901038
  25   26    0    0    0
SMALL
NO_CHARGES


@<TRIPOS>ATOM
   1 C1            -0.0159     1.3189     0.0093 C.ar    
   2 N2             0.0021    -0.0041     0.0020 N.ar    
   3 C3             1.1597    -0.6667    -0.0126 C.ar    
   4 C4             2.3569     0.0612    -0.0202 C.ar    
   5 C5             2.2874     1.4420    -0.0121 C.ar    
   6 N6             1.1018     2.0314     0.0024 N.ar    
   7 N7            -1.2340     1.9763     0.0186 N.pl3   
   8 C8             1.1790    -2.1397    -0.0203 C.2     
   9 C9             0.0249    -2.8265    -0.0124 C.2     
  10 C10           -1.0824    -6.4144    -0.0206 C.ar    
  11 C11           -1.1480    -5.0368    -0.0121 C.ar    
  12 C12            0.0443    -4.3004    -0.0200 C.ar    
  13 C13            1.2556    -5.0050    -0.0359 C.ar    
  14 C14            1.2263    -6.3839    -0.0430 C.ar    
  15 N15            0.0803    -7.0377    -0.0355 N.ar    
  16 H16            3.3113    -0.4443    -0.0317 H       
  17 H17            3.1908     2.0339    -0.0173 H       
  18 H18           -2.0597     1.4674     0.0197 H       
  19 H19           -1.2618     2.9459     0.0240 H       
  20 H20            2.1213    -2.6673    -0.0321 H       
  21 H21           -0.9173    -2.2989    -0.0006 H       
  22 H22           -1.9956    -6.9910    -0.0100 H       
  23 H23           -2.1034    -4.5333    -0.0002 H       
  24 H24            2.1974    -4.4766    -0.0428 H       
  25 H25            2.1543    -6.9362    -0.0552 H       
@<TRIPOS>BOND
   1    1    2 ar
   2    1    6 ar
   3    1    7 1
   4    2    3 ar
   5    3    4 ar
   6    3    8 1
   7    4    5 ar
   8    4   16 1
   9    5    6 ar
  10    5   17 1
  11    7   18 1
  12    7   19 1
  13    8    9 2
  14    8   20 1
  15    9   12 1
  16    9   21 1
  17   10   11 ar
  18   10   15 ar
  19   10   22 1
  20   11   12 ar
  21   11   23 1
  22   12   13 ar
  23   13   14 ar
  24   13   24 1
  25   14   15 ar
  26   14   25 1

#	End of record

