#	Name: ASD03330988
#	Creating user name:	WinNT
#	Creation time:	15. 06. 2019 20:38

#	Modifying user name:	WinNT
#	Modification time:	15. 06. 2019 20:38

#	Program:	/corina/corina34_cracker 3.40 0067  02.08.2006

@<TRIPOS>MOLECULE
ASD03330988
  67   70    0    0    0
SMALL
NO_CHARGES


@<TRIPOS>ATOM
   1 N1             0.0088     1.3041     0.1478 N.pl3   
   2 C2             0.1102    -0.0514     0.1766 C.2     
   3 C3             1.3949    -0.8338     0.2574 C.3     
   4 N4             2.2428    -0.2609     1.3145 N.3     
   5 C5             3.0972     0.8057     0.7891 C.3     
   6 C6             2.3893     1.5743    -0.3230 C.3     
   7 C7             1.1294     2.2450     0.2312 C.3     
   8 C8            -1.3160     1.6125     0.0404 C.2     
   9 N9            -2.0058     0.4962     0.0219 N.2     
  10 C10           -1.1550    -0.5498     0.1073 C.2     
  11 C11           -1.5293    -1.9750     0.1226 C.2     
  12 O12           -0.6674    -2.8293     0.2033 O.2     
  13 N13           -2.8268    -2.3318     0.0472 N.am    
  14 C14            3.0445    -1.3033     1.9692 C.3     
  15 C15           -4.5297    -3.9260    -0.6222 C.2     
  16 C16           -3.1989    -3.7487     0.0624 C.3     
  17 C17           -3.3015    -4.2335     1.5099 C.3     
  18 C18           -3.8220    -5.6721     1.5303 C.3     
  19 O19           -5.3901    -3.0795    -0.5038 O.2     
  20 C20           -1.9194    -4.1820     2.1642 C.3     
  21 C21           -4.2657    -3.3313     2.2828 C.3     
  22 N22           -4.7636    -5.0252    -1.3662 N.am    
  23 C23           -6.0459    -5.3792    -1.9923 C.3     
  24 C24           -5.8455    -6.7271    -2.7166 C.3     
  25 C25           -4.6200    -7.3357    -1.9852 C.3     
  26 C26           -3.7744    -6.0686    -1.6922 C.3     
  27 F27           -6.9705    -7.5442    -2.5616 F       
  28 F28           -5.5626    -6.5236    -4.0715 F       
  29 C29           -1.8806     2.9773    -0.0408 C.ar    
  30 C30           -3.1701     3.1730    -0.5373 C.ar    
  31 C31           -3.6923     4.4492    -0.6104 C.ar    
  32 C32           -2.9362     5.5352    -0.1909 C.ar    
  33 C33           -1.6561     5.3443     0.3019 C.ar    
  34 C34           -1.1279     4.0723     0.3842 C.ar    
  35 F35           -3.4506     6.7823    -0.2640 F       
  36 F36           -4.9402     4.6412    -1.0912 F       
  37 H37            1.1733    -1.8749     0.4924 H       
  38 H38            1.9163    -0.7780    -0.6982 H       
  39 H39            3.3483     1.4938     1.5962 H       
  40 H40            4.0143     0.3682     0.3943 H       
  41 H41            3.0600     2.3358    -0.7210 H       
  42 H42            2.1118     0.8847    -1.1203 H       
  43 H43            0.9023     3.1351    -0.3555 H       
  44 H44            1.2934     2.5251     1.2718 H       
  45 H45           -3.5142    -1.6505    -0.0172 H       
  46 H46            3.6327    -1.8334     1.2201 H       
  47 H47            3.7128    -0.8439     2.6975 H       
  48 H48            2.3829    -2.0061     2.4756 H       
  49 H49           -2.4402    -4.3293    -0.4623 H       
  50 H50           -3.0951    -6.3283     1.0517 H       
  51 H51           -3.9737    -5.9891     2.5621 H       
  52 H52           -4.7682    -5.7238     0.9915 H       
  53 H53           -1.5486    -3.1571     2.1497 H       
  54 H54           -1.9925    -4.5274     3.1955 H       
  55 H55           -1.2326    -4.8247     1.6136 H       
  56 H56           -5.2503    -3.3681     1.8167 H       
  57 H57           -4.3388    -3.6767     3.3141 H       
  58 H58           -3.8948    -2.3065     2.2683 H       
  59 H59           -6.8163    -5.4800    -1.2278 H       
  60 H60           -6.3321    -4.6111    -2.7108 H       
  61 H61           -4.9219    -7.8301    -1.0619 H       
  62 H62           -4.0785    -8.0228    -2.6355 H       
  63 H63           -3.1976    -5.7828    -2.5719 H       
  64 H64           -3.1127    -6.2424    -0.8437 H       
  65 H65           -3.7581     2.3281    -0.8640 H       
  66 H66           -1.0717     6.1925     0.6268 H       
  67 H67           -0.1311     3.9250     0.7729 H       
@<TRIPOS>BOND
   1    1    2 1
   2    1    7 1
   3    1    8 1
   4    2    3 1
   5    2   10 2
   6    3    4 1
   7    3   37 1
   8    3   38 1
   9    4    5 1
  10    4   14 1
  11    5    6 1
  12    5   39 1
  13    5   40 1
  14    6    7 1
  15    6   41 1
  16    6   42 1
  17    7   43 1
  18    7   44 1
  19    8    9 2
  20    8   29 1
  21    9   10 1
  22   10   11 1
  23   11   12 2
  24   11   13 am
  25   13   16 1
  26   13   45 1
  27   14   46 1
  28   14   47 1
  29   14   48 1
  30   15   19 2
  31   15   22 am
  32   15   16 1
  33   16   17 1
  34   16   49 1
  35   17   18 1
  36   17   20 1
  37   17   21 1
  38   18   50 1
  39   18   51 1
  40   18   52 1
  41   20   53 1
  42   20   54 1
  43   20   55 1
  44   21   56 1
  45   21   57 1
  46   21   58 1
  47   22   23 1
  48   22   26 1
  49   23   24 1
  50   23   59 1
  51   23   60 1
  52   24   25 1
  53   24   27 1
  54   24   28 1
  55   25   26 1
  56   25   61 1
  57   25   62 1
  58   26   63 1
  59   26   64 1
  60   29   30 ar
  61   29   34 ar
  62   30   31 ar
  63   30   65 1
  64   31   32 ar
  65   31   36 1
  66   32   33 ar
  67   32   35 1
  68   33   34 ar
  69   33   66 1
  70   34   67 1

#	End of record

