#	Name: ASD01320053
#	Creating user name:	WinNT
#	Creation time:	15. 06. 2019 19:15

#	Modifying user name:	WinNT
#	Modification time:	15. 06. 2019 19:15

#	Program:	/corina/corina34_cracker 3.40 0067  02.08.2006

@<TRIPOS>MOLECULE
ASD01320053
  86   91    0    0    0
SMALL
NO_CHARGES


@<TRIPOS>ATOM
   1 N1            -0.0157     1.3164     0.0238 N.ar    
   2 C2             0.0023    -0.0041     0.0186 C.ar    
   3 N3             1.1222    -0.6954    -0.0000 N.ar    
   4 C4             2.2992    -0.0781    -0.0147 C.ar    
   5 C5             2.3337     1.3264    -0.0099 C.ar    
   6 C6             1.1116     2.0200     0.0102 C.ar    
   7 N7             3.6082    -0.4886    -0.0354 N.pl3   
   8 C8             4.3871     0.6301    -0.0427 C.2     
   9 N9             3.6375     1.6938    -0.0277 N.2     
  10 C10            4.0819    -1.8748    -0.0472 C.3     
  11 C11            4.0036    -2.4579    -1.4756 C.3     
  12 C12            5.4197    -2.2328    -2.0511 C.3     
  13 C13            6.1861    -1.5405    -0.9023 C.3     
  14 O14            5.4833    -1.9302     0.2977 O.3     
  15 O15            3.0305    -1.7547    -2.2507 O.3     
  16 O16            6.0311    -3.4820    -2.3794 O.3     
  17 C17            7.6339    -2.0328    -0.8552 C.3     
  18 O18            8.3550    -1.2978     0.1356 O.3     
  19 P19            9.9119    -1.5532     0.4567 P.3     
  20 N20            1.0827     3.4036     0.0153 N.pl3   
  21 O21           10.0990    -3.0327     1.0636 O.3     
  22 O22           10.6997    -1.4280    -0.7899 O.2     
  23 O23           10.4246    -0.4653     1.5270 O.3     
  24 P24           11.8754     0.0908     1.9492 P.3     
  25 O25           12.6337    -1.0127     2.8432 O.3     
  26 O26           12.6698     0.3705     0.7322 O.2     
  27 O27           11.7036     1.4460     2.8012 O.3     
  28 C28           12.8109     2.2391     3.2337 C.3     
  29 C29           12.2967     3.4500     4.0147 C.3     
  30 C30           13.4712     4.3638     4.3703 C.3     
  31 C31           12.9765     5.5086     5.2567 C.3     
  32 C32           14.1689     6.3510     5.7143 C.3     
  33 N33           13.6953     7.4472     6.5630 N.pl3   
  34 O34           11.6577     3.0072     5.2138 O.3     
  35 O35           14.4636     3.6126     5.0722 O.3     
  36 O36           12.3065     4.9714     6.3988 O.3     
  37 C37           13.5869     7.2859     7.9280 C.ar    
  38 C38           13.1286     8.3491     8.7382 C.ar    
  39 N39           12.7917     9.5290     8.2006 N.2     
  40 C40           12.8801     9.7245     6.9097 C.2     
  41 C41           13.3572     8.6512     6.0221 C.2     
  42 C42           12.5167    11.0134     6.2798 C.2     
  43 N43           12.6473    11.1021     4.9359 N.am    
  44 C44           13.0868    10.0652     4.2088 C.2     
  45 N45           13.4321     8.8875     4.7230 N.2     
  46 C46           13.9292     6.0710     8.5163 C.ar    
  47 C47           13.8190     5.9141     9.8797 C.ar    
  48 C48           13.3679     6.9597    10.6791 C.ar    
  49 C49           13.0265     8.1584    10.1305 C.ar    
  50 O50           13.1808    10.2119     3.0027 O.2     
  51 O51           12.1176    11.9520     6.9414 O.2     
  52 C52           14.1899     4.5974    10.5121 C.3     
  53 C53           13.2559     6.7635    12.1691 C.3     
  54 H54           -0.9372    -0.5368     0.0305 H       
  55 H55            5.4670     0.6331    -0.0581 H       
  56 H56            3.4953    -2.4813     0.6429 H       
  57 H57            3.7698    -3.5220    -1.4415 H       
  58 H58            5.3776    -1.5853    -2.9268 H       
  59 H59            6.1564    -0.4578    -1.0247 H       
  60 H60            2.9399    -2.0798    -3.1569 H       
  61 H61            5.5563    -3.9871    -3.0536 H       
  62 H62            7.6491    -3.0933    -0.6036 H       
  63 H63            8.1002    -1.8837    -1.8291 H       
  64 H64            1.9124     3.9060     0.0049 H       
  65 H65            0.2328     3.8709     0.0293 H       
  66 H66            9.6097    -3.1863     1.8833 H       
  67 H67           12.1690    -1.2453     3.6587 H       
  68 H68           13.4577     1.6408     3.8753 H       
  69 H69           13.3749     2.5796     2.3654 H       
  70 H70           11.5809     3.9996     3.4033 H       
  71 H71           13.9033     4.7722     3.4568 H       
  72 H72           12.2858     6.1338     4.6909 H       
  73 H73           14.8597     5.7259     6.2801 H       
  74 H74           14.6800     6.7608     4.8432 H       
  75 H75           12.2368     2.5097     5.8073 H       
  76 H76           14.1484     3.2189     5.8973 H       
  77 H77           12.8623     4.4036     6.9499 H       
  78 H78           12.4180    11.9324     4.4898 H       
  79 H79           14.2800     5.2532     7.9042 H       
  80 H80           12.6770     8.9619    10.7620 H       
  81 H81           15.2463     4.6081    10.7804 H       
  82 H82           13.5890     4.4426    11.4082 H       
  83 H83           14.0028     3.7893     9.8050 H       
  84 H84           14.1958     7.0447    12.6443 H       
  85 H85           12.4512     7.3873    12.5583 H       
  86 H86           13.0398     5.7167    12.3825 H       
@<TRIPOS>BOND
   1    1    2 ar
   2    1    6 ar
   3    2    3 ar
   4    2   54 1
   5    3    4 ar
   6    4    5 ar
   7    4    7 1
   8    5    6 ar
   9    5    9 1
  10    6   20 1
  11    7    8 1
  12    7   10 1
  13    8    9 2
  14    8   55 1
  15   10   11 1
  16   10   14 1
  17   10   56 1
  18   11   12 1
  19   11   15 1
  20   11   57 1
  21   12   13 1
  22   12   16 1
  23   12   58 1
  24   13   14 1
  25   13   17 1
  26   13   59 1
  27   15   60 1
  28   16   61 1
  29   17   18 1
  30   17   62 1
  31   17   63 1
  32   18   19 1
  33   19   21 1
  34   19   22 2
  35   19   23 1
  36   20   64 1
  37   20   65 1
  38   21   66 1
  39   23   24 1
  40   24   25 1
  41   24   26 2
  42   24   27 1
  43   25   67 1
  44   27   28 1
  45   28   29 1
  46   28   68 1
  47   28   69 1
  48   29   30 1
  49   29   34 1
  50   29   70 1
  51   30   31 1
  52   30   35 1
  53   30   71 1
  54   31   32 1
  55   31   36 1
  56   31   72 1
  57   32   33 1
  58   32   73 1
  59   32   74 1
  60   33   37 1
  61   33   41 1
  62   34   75 1
  63   35   76 1
  64   36   77 1
  65   37   38 ar
  66   37   46 ar
  67   38   39 1
  68   38   49 ar
  69   39   40 2
  70   40   41 1
  71   40   42 1
  72   41   45 2
  73   42   43 am
  74   42   51 2
  75   43   44 am
  76   43   78 1
  77   44   45 1
  78   44   50 2
  79   46   47 ar
  80   46   79 1
  81   47   48 ar
  82   47   52 1
  83   48   49 ar
  84   48   53 1
  85   49   80 1
  86   52   81 1
  87   52   82 1
  88   52   83 1
  89   53   84 1
  90   53   85 1
  91   53   86 1

#	End of record

