#	Name: ASD04881085
#	Creating user name:	WinNT
#	Creation time:	15. 06. 2019 20:53

#	Modifying user name:	WinNT
#	Modification time:	15. 06. 2019 20:53

#	Program:	/corina/corina34_cracker 3.40 0067  02.08.2006

@<TRIPOS>MOLECULE
ASD04881085
  74   79    0    0    0
SMALL
NO_CHARGES


@<TRIPOS>ATOM
   1 C1            -0.4546     2.3447     3.1220 C.ar    
   2 C2            -0.7165     1.3661     2.1803 C.ar    
   3 C3             0.2303     1.0527     1.2227 C.ar    
   4 C4             1.4415     1.7164     1.2037 C.ar    
   5 C5             1.7078     2.6996     2.1478 C.ar    
   6 C6             0.7541     3.0120     3.1086 C.ar    
   7 N7             2.9317     3.3723     2.1317 N.3     
   8 C8             3.0841     4.1591     0.8999 C.3     
   9 C9             4.3983     4.9414     0.9566 C.3     
  10 N10            5.5173     4.0030     1.1205 N.3     
  11 C11            5.3649     3.2163     2.3524 C.3     
  12 C12            4.0507     2.4339     2.2956 C.3     
  13 C13            6.7375     4.6737     1.1045 C.ar    
  14 C14            7.1748     5.2992    -0.0667 C.ar    
  15 C15            8.3854     5.9651    -0.0823 C.ar    
  16 C16            9.1694     6.0109     1.0744 C.ar    
  17 C17            8.7263     5.3836     2.2417 C.ar    
  18 C18            7.5162     4.7253     2.2545 C.ar    
  19 C19            1.0384     4.0785     4.1348 C.3     
  20 N20            6.3864     5.2506    -1.2240 N.am    
  21 C21           10.4629     6.7203     1.0624 C.2     
  22 O22           10.8478     7.2656     0.0461 O.2     
  23 N23           11.2179     6.7639     2.1780 N.am    
  24 C24           12.5023     7.4683     2.1661 C.3     
  25 C25           13.5158     6.6783     2.9533 C.ar    
  26 C26            6.4797     6.2305    -2.1447 C.2     
  27 C27            5.5847     6.2291    -3.3158 C.2     
  28 C28            5.5654     7.1478    -4.3199 C.2     
  29 O29            4.6043     6.7696    -5.1779 O.3     
  30 C30            4.0455     5.6438    -4.7118 C.2     
  31 N31            4.6264     5.3058    -3.5998 N.2     
  32 O32            7.3024     7.1160    -2.0091 O.2     
  33 C33            2.9240     4.8870    -5.3755 C.3     
  34 C34            1.6020     5.6269    -5.5895 C.3     
  35 C35            2.5115     5.3250    -6.7822 C.3     
  36 O36           12.3427     8.7600     2.7561 O.3     
  37 C37           14.8551     6.7426     2.6168 C.ar    
  38 C38           15.7847     6.0178     3.3388 C.ar    
  39 C39           15.3752     5.2291     4.3977 C.ar    
  40 C40           14.0361     5.1655     4.7348 C.ar    
  41 C41           13.1070     5.8937     4.0154 C.ar    
  42 H42           -1.1981     2.5902     3.8658 H       
  43 H43           -1.6626     0.8454     2.1932 H       
  44 H44            0.0228     0.2878     0.4890 H       
  45 H45            2.1808     1.4708     0.4556 H       
  46 H46            3.0963     3.4894     0.0399 H       
  47 H47            2.2503     4.8550     0.8074 H       
  48 H48            4.5273     5.5032     0.0315 H       
  49 H49            4.3751     5.6306     1.8007 H       
  50 H50            6.1987     2.5203     2.4449 H       
  51 H51            5.3527     3.8859     3.2124 H       
  52 H52            3.9217     1.8722     3.2208 H       
  53 H53            4.0740     1.7447     1.4515 H       
  54 H54            8.7255     6.4488    -0.9861 H       
  55 H55            9.3312     5.4181     3.1357 H       
  56 H56            7.1739     4.2446     3.1590 H       
  57 H57            1.4250     3.6153     5.0426 H       
  58 H58            1.7774     4.7754     3.7394 H       
  59 H59            0.1185     4.6160     4.3645 H       
  60 H60            5.7735     4.5117    -1.3626 H       
  61 H61           10.9108     6.3289     2.9888 H       
  62 H62           12.8467     7.5786     1.1379 H       
  63 H63            6.2016     8.0158    -4.4092 H       
  64 H64            2.8735     3.8230    -5.1442 H       
  65 H65            0.6818     5.0496    -5.4995 H       
  66 H66            1.5435     6.6611    -5.2503 H       
  67 H67            3.0513     6.1606    -7.2277 H       
  68 H68            2.1897     4.5491    -7.4768 H       
  69 H69           12.0376     8.7384     3.6735 H       
  70 H70           15.1750     7.3588     1.7896 H       
  71 H71           16.8309     6.0675     3.0755 H       
  72 H72           16.1015     4.6623     4.9613 H       
  73 H73           13.7161     4.5490     5.5618 H       
  74 H74           12.0612     5.8468     4.2811 H       
@<TRIPOS>BOND
   1    1    2 ar
   2    1    6 ar
   3    1   42 1
   4    2    3 ar
   5    2   43 1
   6    3    4 ar
   7    3   44 1
   8    4    5 ar
   9    4   45 1
  10    5    6 ar
  11    5    7 1
  12    6   19 1
  13    7    8 1
  14    7   12 1
  15    8    9 1
  16    8   46 1
  17    8   47 1
  18    9   10 1
  19    9   48 1
  20    9   49 1
  21   10   11 1
  22   10   13 1
  23   11   12 1
  24   11   50 1
  25   11   51 1
  26   12   52 1
  27   12   53 1
  28   13   14 ar
  29   13   18 ar
  30   14   15 ar
  31   14   20 1
  32   15   16 ar
  33   15   54 1
  34   16   17 ar
  35   16   21 1
  36   17   18 ar
  37   17   55 1
  38   18   56 1
  39   19   57 1
  40   19   58 1
  41   19   59 1
  42   20   26 am
  43   20   60 1
  44   21   22 2
  45   21   23 am
  46   23   24 1
  47   23   61 1
  48   24   25 1
  49   24   36 1
  50   24   62 1
  51   25   37 ar
  52   25   41 ar
  53   26   27 1
  54   26   32 2
  55   27   28 2
  56   27   31 1
  57   28   29 1
  58   28   63 1
  59   29   30 1
  60   30   31 2
  61   30   33 1
  62   33   34 1
  63   33   35 1
  64   33   64 1
  65   34   35 1
  66   34   65 1
  67   34   66 1
  68   35   67 1
  69   35   68 1
  70   36   69 1
  71   37   38 ar
  72   37   70 1
  73   38   39 ar
  74   38   71 1
  75   39   40 ar
  76   39   72 1
  77   40   41 ar
  78   40   73 1
  79   41   74 1

#	End of record

