#	Name: ASD05490309
#	Creating user name:	WinNT
#	Creation time:	15. 06. 2019 21:01

#	Modifying user name:	WinNT
#	Modification time:	15. 06. 2019 21:01

#	Program:	/corina/corina34_cracker 3.40 0067  02.08.2006

@<TRIPOS>MOLECULE
ASD05490309
  33   35    0    0    0
SMALL
NO_CHARGES


@<TRIPOS>ATOM
   1 N1            -0.0159     1.3210     0.0093 N.ar    
   2 C2             0.0021    -0.0041     0.0020 C.ar    
   3 N3             1.1284    -0.6951    -0.0120 N.ar    
   4 C4             2.3034    -0.0736    -0.0199 C.ar    
   5 C5             2.3345     1.3308    -0.0131 C.ar    
   6 C6             1.1118     2.0235     0.0023 C.ar    
   7 N7             1.0831     3.4068     0.0091 N.pl3   
   8 O8            -1.1758    -0.6739     0.0097 O.3     
   9 N9             3.6133    -0.4811    -0.0346 N.pl3   
  10 C10            4.3904     0.6401    -0.0365 C.2     
  11 N11            3.6384     1.7016    -0.0238 N.2     
  12 C12           -2.3690     0.1122     0.0253 C.3     
  13 C13           -3.5885    -0.8118     0.0320 C.3     
  14 C14           -4.8641     0.0241     0.1745 C.3     
  15 C15           -3.6471    -1.5924    -1.2847 C.3     
  16 C16           -4.9119    -2.4548    -1.3017 C.3     
  17 O17           -6.0589    -1.6192    -1.1340 O.3     
  18 C18           -6.0818    -0.9008     0.1011 C.3     
  19 H19            1.9128     3.9092     0.0033 H       
  20 H20            0.2332     3.8742     0.0198 H       
  21 H21            3.9290    -1.3983    -0.0420 H       
  22 H22            5.4703     0.6457    -0.0466 H       
  23 H23           -2.3813     0.7364     0.9188 H       
  24 H24           -2.3983     0.7459    -0.8611 H       
  25 H25           -3.5137    -1.5082     0.8672 H       
  26 H26           -4.8560     0.5402     1.1345 H       
  27 H27           -4.9126     0.7550    -0.6327 H       
  28 H28           -3.6711    -0.8941    -2.1213 H       
  29 H29           -2.7687    -2.2323    -1.3682 H       
  30 H30           -4.9809    -2.9800    -2.2544 H       
  31 H31           -4.8684    -3.1799    -0.4890 H       
  32 H32           -6.0537    -1.6055     0.9321 H       
  33 H33           -6.9937    -0.3064     0.1590 H       
@<TRIPOS>BOND
   1    1    2 ar
   2    1    6 ar
   3    2    3 ar
   4    2    8 1
   5    3    4 ar
   6    4    5 ar
   7    4    9 1
   8    5    6 ar
   9    5   11 1
  10    6    7 1
  11    7   19 1
  12    7   20 1
  13    8   12 1
  14    9   10 1
  15    9   21 1
  16   10   11 2
  17   10   22 1
  18   12   13 1
  19   12   23 1
  20   12   24 1
  21   13   14 1
  22   13   15 1
  23   13   25 1
  24   14   18 1
  25   14   26 1
  26   14   27 1
  27   15   16 1
  28   15   28 1
  29   15   29 1
  30   16   17 1
  31   16   30 1
  32   16   31 1
  33   17   18 1
  34   18   32 1
  35   18   33 1

#	End of record

