#	Name: ASD07301018
#	Creating user name:	WinNT
#	Creation time:	15. 06. 2019 21:10

#	Modifying user name:	WinNT
#	Modification time:	15. 06. 2019 21:10

#	Program:	/corina/corina34_cracker 3.40 0067  02.08.2006

@<TRIPOS>MOLECULE
ASD07301018
  18   18    0    0    0
SMALL
NO_CHARGES


@<TRIPOS>ATOM
   1 N1            -0.0169     1.3969     0.0097 N.pl3   
   2 C2             0.0021    -0.0041     0.0020 C.ar    
   3 C3             1.2155    -0.6835    -0.0132 C.ar    
   4 C4             1.2323    -2.0658    -0.0203 C.ar    
   5 C5             0.0393    -2.7740    -0.0123 C.ar    
   6 C6            -1.1703    -2.0964     0.0025 C.ar    
   7 C7            -1.1895    -0.7146     0.0154 C.ar    
   8 O8             0.0564    -4.1339    -0.0192 O.3     
   9 C9            -1.2086    -4.7986    -0.0103 C.3     
  10 F10           -1.9392    -4.4260    -1.1436 F       
  11 F11           -1.0079    -6.1831    -0.0192 F       
  12 F12           -1.9170    -4.4374     1.1408 F       
  13 F13            2.3768     0.0068    -0.0215 F       
  14 H14            0.8164     1.8932     0.0044 H       
  15 H15           -0.8635     1.8704     0.0163 H       
  16 H16            2.1741    -2.5943    -0.0325 H       
  17 H17           -2.0982    -2.6490     0.0084 H       
  18 H18           -2.1321    -0.1878     0.0317 H       
@<TRIPOS>BOND
   1    1    2 1
   2    1   14 1
   3    1   15 1
   4    2    3 ar
   5    2    7 ar
   6    3    4 ar
   7    3   13 1
   8    4    5 ar
   9    4   16 1
  10    5    6 ar
  11    5    8 1
  12    6    7 ar
  13    6   17 1
  14    7   18 1
  15    8    9 1
  16    9   10 1
  17    9   11 1
  18    9   12 1

#	End of record

