#	Name: ASD01815831
#	Creating user name:	WinNT
#	Creation time:	15. 06. 2019 19:34

#	Modifying user name:	WinNT
#	Modification time:	15. 06. 2019 19:34

#	Program:	/corina/corina34_cracker 3.40 0067  02.08.2006

@<TRIPOS>MOLECULE
ASD01815831
  59   63    0    0    0
SMALL
NO_CHARGES


@<TRIPOS>ATOM
   1 C1            -0.0168     1.3869     0.0097 C.ar    
   2 C2             0.0021    -0.0041     0.0020 C.ar    
   3 C3             1.1801    -0.6897    -0.0129 C.ar    
   4 C4             2.3948     0.0129    -0.0207 C.ar    
   5 C5             2.3717     1.4290    -0.0129 C.ar    
   6 C6             1.1455     2.1015     0.0024 C.ar    
   7 C7             3.6293    -0.6694    -0.0365 C.ar    
   8 C8             4.8031     0.0063    -0.0446 C.ar    
   9 C9             4.8359     1.4095    -0.0374 C.ar    
  10 C10            3.6406     2.1511    -0.0211 C.ar    
  11 C11            6.1026     2.1526    -0.0470 C.2     
  12 N12            6.0328     3.5041    -0.0399 N.am    
  13 C13            4.8302     4.1313    -0.0241 C.2     
  14 N14            3.6961     3.4935    -0.0158 N.2     
  15 C15            7.2655     4.2957    -0.0490 C.3     
  16 C16            7.2933     5.1850    -1.2948 C.3     
  17 C17            7.3154     5.1796     1.2010 C.3     
  18 C18            8.5686     6.0583     1.1419 C.3     
  19 C19            8.5461     6.8796    -0.1499 C.3     
  20 O20            8.4682     5.9980    -1.2719 O.3     
  21 O21            7.1745     1.5748    -0.0604 O.2     
  22 C22            3.6424    -2.1763    -0.0442 C.3     
  23 C23            3.5087    -2.6726    -1.4608 C.ar    
  24 C24            4.6309    -2.8954    -2.2436 C.ar    
  25 C25            4.4692    -3.3513    -3.5385 C.ar    
  26 N26            3.2660    -3.5733    -4.0300 N.ar    
  27 C27            2.1765    -3.3723    -3.3144 C.ar    
  28 C28            2.2603    -2.9228    -2.0105 C.ar    
  29 O29            7.3639     4.3556     2.3675 O.3     
  30 C30            0.8249    -3.6410    -3.9242 C.3     
  31 C31            0.3701    -5.0541    -3.5537 C.3     
  32 C32           -0.1863    -2.6238    -3.3915 C.3     
  33 H33           -0.9630     1.9076     0.0169 H       
  34 H34           -0.9305    -0.5488     0.0083 H       
  35 H35            1.1786    -1.7697    -0.0183 H       
  36 H36            1.1188     3.1811     0.0081 H       
  37 H37            5.7317    -0.5451    -0.0563 H       
  38 H38            4.8132     5.2111    -0.0182 H       
  39 H39            8.1271     3.6280    -0.0588 H       
  40 H40            7.3011     4.5598    -2.1876 H       
  41 H41            6.4097     5.8233    -1.3055 H       
  42 H42            6.4281     5.8118     1.2362 H       
  43 H43            8.5834     6.7299     2.0003 H       
  44 H44            9.4571     5.4271     1.1568 H       
  45 H45            7.6789     7.5400    -0.1457 H       
  46 H46            9.4564     7.4751    -0.2180 H       
  47 H47            4.5813    -2.5336     0.3789 H       
  48 H48            2.8098    -2.5499     0.5518 H       
  49 H49            5.6190    -2.7148    -1.8468 H       
  50 H50            5.3384    -3.5274    -4.1548 H       
  51 H51            1.3645    -2.7600    -1.4295 H       
  52 H52            7.3971     4.8505     3.1976 H       
  53 H53            0.8916    -3.5534    -5.0086 H       
  54 H54            0.3034    -5.1417    -2.4693 H       
  55 H55           -0.6076    -5.2485    -3.9947 H       
  56 H56            1.0905    -5.7788    -3.9332 H       
  57 H57           -0.2529    -2.7114    -2.3071 H       
  58 H58            0.1377    -1.6171    -3.6555 H       
  59 H59           -1.1639    -2.8182    -3.8326 H       
@<TRIPOS>BOND
   1    1    2 ar
   2    1    6 ar
   3    1   33 1
   4    2    3 ar
   5    2   34 1
   6    3    4 ar
   7    3   35 1
   8    4    5 ar
   9    4    7 ar
  10    5    6 ar
  11    5   10 ar
  12    6   36 1
  13    7    8 ar
  14    7   22 1
  15    8    9 ar
  16    8   37 1
  17    9   10 ar
  18    9   11 1
  19   10   14 1
  20   11   12 am
  21   11   21 2
  22   12   13 1
  23   12   15 1
  24   13   14 2
  25   13   38 1
  26   15   16 1
  27   15   17 1
  28   15   39 1
  29   16   20 1
  30   16   40 1
  31   16   41 1
  32   17   18 1
  33   17   29 1
  34   17   42 1
  35   18   19 1
  36   18   43 1
  37   18   44 1
  38   19   20 1
  39   19   45 1
  40   19   46 1
  41   22   23 1
  42   22   47 1
  43   22   48 1
  44   23   24 ar
  45   23   28 ar
  46   24   25 ar
  47   24   49 1
  48   25   26 ar
  49   25   50 1
  50   26   27 ar
  51   27   28 ar
  52   27   30 1
  53   28   51 1
  54   29   52 1
  55   30   31 1
  56   30   32 1
  57   30   53 1
  58   31   54 1
  59   31   55 1
  60   31   56 1
  61   32   57 1
  62   32   58 1
  63   32   59 1

#	End of record

