#	Name: ASD01811002
#	Creating user name:	WinNT
#	Creation time:	15. 06. 2019 19:25

#	Modifying user name:	WinNT
#	Modification time:	15. 06. 2019 19:25

#	Program:	/corina/corina34_cracker 3.40 0067  02.08.2006

@<TRIPOS>MOLECULE
ASD01811002
  63   66    0    0    0
SMALL
NO_CHARGES


@<TRIPOS>ATOM
   1 C1            -0.0184     1.5028     0.0103 C.3     
   2 C2             0.0021    -0.0041     0.0020 C.ar    
   3 C3             0.0229    -0.7006     1.1962 C.ar    
   4 C4             0.0416    -2.0819     1.1913 C.ar    
   5 C5             0.0396    -2.7702    -0.0132 C.ar    
   6 C6             0.0187    -2.0690    -1.2101 C.ar    
   7 C7            -0.0057    -0.6878    -1.1997 C.ar    
   8 O8             0.0585    -4.1290    -0.0207 O.3     
   9 C9             1.3954     2.0244    -0.0004 C.2     
  10 C10            0.0551    -4.7709    -1.2974 C.3     
  11 N11            1.6237     3.3527     0.0046 N.am    
  12 O12            2.3278     1.2489    -0.0135 O.2     
  13 C13            2.9981     3.8598    -0.0058 C.3     
  14 C14            3.0197     5.2672    -0.6084 C.3     
  15 C15            4.4477     5.8154    -0.5608 C.3     
  16 N16            4.9130     5.8524     0.8315 N.3     
  17 C17            4.9458     4.5059     1.4164 C.3     
  18 C18            3.5327     3.9186     1.4278 C.3     
  19 C19            6.2271     6.5015     0.9304 C.3     
  20 C20            6.5657     6.7462     2.4023 C.3     
  21 C21            7.9343     7.4222     2.5052 C.3     
  22 N22            8.2585     7.6565     3.9146 N.am    
  23 C23            8.9217     6.7222     4.6302 C.2     
  24 C24            7.8902     8.8562     4.5398 C.ar    
  25 C25            8.4768     9.1984     5.7576 C.ar    
  26 C26            9.2128     6.9652     6.0893 C.3     
  27 O27            9.3921     8.3629     6.3173 O.3     
  28 O28            9.2813     5.6917     4.1010 O.2     
  29 C29            6.9555     9.6980     3.9611 C.ar    
  30 C30            8.1234    10.3799     6.3847 C.ar    
  31 C31            7.1887    11.2169     5.8015 C.ar    
  32 C32            6.6071    10.8776     4.5942 C.ar    
  33 H33           -0.5455     1.8639    -0.8728 H       
  34 H34           -0.5286     1.8543     0.9071 H       
  35 H35            0.0248    -0.1643     2.1337 H       
  36 H36            0.0582    -2.6255     2.1244 H       
  37 H37            0.0171    -2.6025    -2.1491 H       
  38 H38           -0.0268    -0.1415    -2.1312 H       
  39 H39           -0.8443    -4.4875    -1.8442 H       
  40 H40            0.9354    -4.4626    -1.8614 H       
  41 H41            0.0715    -5.8521    -1.1606 H       
  42 H42            0.8780     3.9729     0.0150 H       
  43 H43            3.6259     3.1983    -0.6028 H       
  44 H44            2.6804     5.2252    -1.6434 H       
  45 H45            2.3605     5.9188    -0.0349 H       
  46 H46            5.1038     5.1710    -1.1459 H       
  47 H47            4.4640     6.8231    -0.9761 H       
  48 H48            5.5996     3.8676     0.8220 H       
  49 H49            5.3239     4.5624     2.4372 H       
  50 H50            2.8815     4.5490     2.0334 H       
  51 H51            3.5598     2.9131     1.8476 H       
  52 H52            6.9851     5.8569     0.4855 H       
  53 H53            6.2029     7.4535     0.4000 H       
  54 H54            5.8076     7.3908     2.8472 H       
  55 H55            6.5898     5.7942     2.9326 H       
  56 H56            8.6924     6.7776     2.0603 H       
  57 H57            7.9101     8.3742     1.9749 H       
  58 H58            8.3791     6.6027     6.6908 H       
  59 H59           10.1214     6.4333     6.3715 H       
  60 H60            6.5000     9.4346     3.0180 H       
  61 H61            8.5759    10.6482     7.3279 H       
  62 H62            6.9125    12.1389     6.2913 H       
  63 H63            5.8784    11.5354     4.1440 H       
@<TRIPOS>BOND
   1    1    2 1
   2    1    9 1
   3    1   33 1
   4    1   34 1
   5    2    3 ar
   6    2    7 ar
   7    3    4 ar
   8    3   35 1
   9    4    5 ar
  10    4   36 1
  11    5    6 ar
  12    5    8 1
  13    6    7 ar
  14    6   37 1
  15    7   38 1
  16    8   10 1
  17    9   11 am
  18    9   12 2
  19   10   39 1
  20   10   40 1
  21   10   41 1
  22   11   13 1
  23   11   42 1
  24   13   14 1
  25   13   18 1
  26   13   43 1
  27   14   15 1
  28   14   44 1
  29   14   45 1
  30   15   16 1
  31   15   46 1
  32   15   47 1
  33   16   17 1
  34   16   19 1
  35   17   18 1
  36   17   48 1
  37   17   49 1
  38   18   50 1
  39   18   51 1
  40   19   20 1
  41   19   52 1
  42   19   53 1
  43   20   21 1
  44   20   54 1
  45   20   55 1
  46   21   22 1
  47   21   56 1
  48   21   57 1
  49   22   23 am
  50   22   24 1
  51   23   26 1
  52   23   28 2
  53   24   25 ar
  54   24   29 ar
  55   25   30 ar
  56   25   27 1
  57   26   27 1
  58   26   58 1
  59   26   59 1
  60   29   32 ar
  61   29   60 1
  62   30   31 ar
  63   30   61 1
  64   31   32 ar
  65   31   62 1
  66   32   63 1

#	End of record

