#	Name: ASD03430893
#	Creating user name:	WinNT
#	Creation time:	15. 06. 2019 20:41

#	Modifying user name:	WinNT
#	Modification time:	15. 06. 2019 20:41

#	Program:	/corina/corina34_cracker 3.40 0067  02.08.2006

@<TRIPOS>MOLECULE
ASD03430893
  56   62    0    0    0
SMALL
NO_CHARGES


@<TRIPOS>ATOM
   1 O1            -1.4979     1.0626    -0.2265 O.3     
   2 C2            -1.3700    -0.3575    -0.4307 C.3     
   3 C3             0.1205    -0.6007    -0.1576 C.3     
   4 C4             0.5010     0.5528     0.7318 C.ar    
   5 C5            -0.5265     1.4859     0.6320 C.ar    
   6 C6            -0.4432     2.6616     1.3713 C.ar    
   7 C7             0.6511     2.9048     2.1844 C.ar    
   8 C8             1.6748     1.9683     2.2699 C.ar    
   9 C9             1.5932     0.7935     1.5382 C.ar    
  10 N10            1.1977    -2.6107    -0.3040 N.am    
  11 C11            0.3587    -1.9290     0.5012 C.2     
  12 C12            0.9253    -0.6343    -1.4225 C.ar    
  13 C13            1.1251     0.2694    -2.4567 C.ar    
  14 C14            1.9587    -0.0701    -3.5226 C.ar    
  15 C15            2.5784    -1.3034    -3.5403 C.ar    
  16 C16            2.3785    -2.2021    -2.5118 C.ar    
  17 C17            1.5481    -1.8777    -1.4409 C.ar    
  18 O18           -0.1117    -2.3131     1.5511 O.2     
  19 O19            2.7585     2.1888     3.0642 O.3     
  20 O20            0.7130     4.0676     2.8900 O.3     
  21 C21            2.9811     3.5383     3.4879 C.3     
  22 C22            1.6445     4.1137     3.9761 C.3     
  23 C23            0.4539     1.5922    -2.4290 C.ar    
  24 C24           -0.4263     1.9500    -3.4488 C.ar    
  25 C25           -1.0492     3.1799    -3.4203 C.ar    
  26 C26           -0.8002     4.0617    -2.3768 C.ar    
  27 C27            0.0762     3.7079    -1.3595 C.ar    
  28 C28            0.6978     2.4771    -1.3801 C.ar    
  29 O29           -1.4149     5.2729    -2.3515 O.3     
  30 C30           -0.7793     6.3231    -2.9343 C.ar    
  31 C31            0.4069     6.1211    -3.6253 C.ar    
  32 C32           -1.3184     7.5985    -2.8443 C.ar    
  33 C33           -0.6706     8.6643    -3.4381 C.ar    
  34 C34            0.5138     8.4610    -4.1220 C.ar    
  35 C35            1.0507     7.1904    -4.2172 C.ar    
  36 H36           -1.9882    -0.9077     0.2787 H       
  37 H37           -1.6242    -0.6254    -1.4562 H       
  38 H38           -1.2378     3.3904     1.3102 H       
  39 H39            2.3868     0.0637     1.6015 H       
  40 H40            1.5206    -3.5059    -0.1161 H       
  41 H41            2.1186     0.6290    -4.3301 H       
  42 H42            3.2241    -1.5672    -4.3649 H       
  43 H43            2.8694    -3.1637    -2.5373 H       
  44 H44            3.7070     3.5536     4.3008 H       
  45 H45            3.3525     4.1299     2.6511 H       
  46 H46            1.7840     5.1460     4.2970 H       
  47 H47            1.2694     3.5172     4.8077 H       
  48 H48           -0.6201     1.2647    -4.2608 H       
  49 H49           -1.7310     3.4579    -4.2104 H       
  50 H50            0.2683     4.3958    -0.5494 H       
  51 H51            1.3793     2.2025    -0.5886 H       
  52 H52            0.8266     5.1288    -3.6999 H       
  53 H53           -2.2439     7.7578    -2.3109 H       
  54 H54           -1.0898     9.6572    -3.3684 H       
  55 H55            1.0184     9.2956    -4.5861 H       
  56 H56            1.9761     7.0343    -4.7516 H       
@<TRIPOS>BOND
   1    1    2 1
   2    1    5 1
   3    2    3 1
   4    2   36 1
   5    2   37 1
   6    3    4 1
   7    3   11 1
   8    3   12 1
   9    4    5 ar
  10    4    9 ar
  11    5    6 ar
  12    6    7 ar
  13    6   38 1
  14    7    8 ar
  15    7   20 1
  16    8    9 ar
  17    8   19 1
  18    9   39 1
  19   10   11 am
  20   10   17 1
  21   10   40 1
  22   11   18 2
  23   12   13 ar
  24   12   17 ar
  25   13   14 ar
  26   13   23 1
  27   14   15 ar
  28   14   41 1
  29   15   16 ar
  30   15   42 1
  31   16   17 ar
  32   16   43 1
  33   19   21 1
  34   20   22 1
  35   21   22 1
  36   21   44 1
  37   21   45 1
  38   22   46 1
  39   22   47 1
  40   23   24 ar
  41   23   28 ar
  42   24   25 ar
  43   24   48 1
  44   25   26 ar
  45   25   49 1
  46   26   27 ar
  47   26   29 1
  48   27   28 ar
  49   27   50 1
  50   28   51 1
  51   29   30 1
  52   30   31 ar
  53   30   32 ar
  54   31   35 ar
  55   31   52 1
  56   32   33 ar
  57   32   53 1
  58   33   34 ar
  59   33   54 1
  60   34   35 ar
  61   34   55 1
  62   35   56 1

#	End of record

