#	Name: ASD07300282
#	Creating user name:	WinNT
#	Creation time:	15. 06. 2019 21:09

#	Modifying user name:	WinNT
#	Modification time:	15. 06. 2019 21:09

#	Program:	/corina/corina34_cracker 3.40 0067  02.08.2006

@<TRIPOS>MOLECULE
ASD07300282
  48   51    0    0    0
SMALL
NO_CHARGES


@<TRIPOS>ATOM
   1 C1            -0.1115     1.4135     0.1082 C.ar    
   2 C2            -0.1388     0.0178     0.0266 C.ar    
   3 C3             0.9719    -0.6566    -0.4581 C.ar    
   4 C4             2.0752     0.0898    -0.8459 C.ar    
   5 C5             2.0330     1.4671    -0.7381 C.ar    
   6 N6             0.9635     2.0833    -0.2730 N.ar    
   7 C7            -2.0811     0.7040     0.8505 C.2     
   8 N8            -1.3405     1.8054     0.6267 N.am    
   9 N9            -1.3843    -0.3917     0.4931 N.am    
  10 O10           -3.2105     0.6992     1.3032 O.2     
  11 C11            0.9803    -2.1601    -0.5604 C.3     
  12 F12            2.2494    -2.5933    -0.9591 F       
  13 F13            0.6687    -2.7140     0.6859 F       
  14 F14            0.0306    -2.5687    -1.5029 F       
  15 C15           -1.8534    -1.7764     0.5874 C.3     
  16 C16           -1.6259    -2.2963     2.0082 C.3     
  17 C17           -1.7414     3.1268     0.8749 C.ar    
  18 C18           -3.0018     3.3836     1.3970 C.ar    
  19 C19           -3.3957     4.6843     1.6416 C.ar    
  20 C20           -2.5321     5.7343     1.3656 C.ar    
  21 C21           -1.2727     5.4783     0.8434 C.ar    
  22 C22           -0.8757     4.1776     0.6038 C.ar    
  23 O23           -2.9205     7.0148     1.6066 O.3     
  24 C24           -1.9808     8.0465     1.2989 C.3     
  25 C25           -2.5820     9.3884     1.6292 C.ar    
  26 C26           -2.4133     9.9298     2.8899 C.ar    
  27 C27           -2.9647    11.1607     3.1929 C.ar    
  28 C28           -3.6845    11.8502     2.2351 C.ar    
  29 C29           -3.8524    11.3092     0.9742 C.ar    
  30 C30           -3.2973    10.0803     0.6698 C.ar    
  31 H31            2.9584    -0.4005    -1.2280 H       
  32 H32            2.8914     2.0492    -1.0393 H       
  33 H33           -2.9168    -1.8166     0.3517 H       
  34 H34           -1.3010    -2.3960    -0.1190 H       
  35 H35           -0.5624    -2.2561     2.2439 H       
  36 H36           -2.1783    -1.6767     2.7147 H       
  37 H37           -1.9749    -3.3265     2.0784 H       
  38 H38           -3.6743     2.5662     1.6116 H       
  39 H39           -4.3764     4.8842     2.0474 H       
  40 H40           -0.6010     6.2962     0.6281 H       
  41 H41            0.1067     3.9781     0.2018 H       
  42 H42           -1.0746     7.8998     1.8866 H       
  43 H43           -1.7354     8.0097     0.2375 H       
  44 H44           -1.8509     9.3911     3.6381 H       
  45 H45           -2.8336    11.5834     4.1780 H       
  46 H46           -4.1160    12.8115     2.4721 H       
  47 H47           -4.4150    11.8478     0.2260 H       
  48 H48           -3.4253     9.6593    -0.3165 H       
@<TRIPOS>BOND
   1    1    2 ar
   2    1    6 ar
   3    1    8 1
   4    2    3 ar
   5    2    9 1
   6    3    4 ar
   7    3   11 1
   8    4    5 ar
   9    4   31 1
  10    5    6 ar
  11    5   32 1
  12    7    8 am
  13    7    9 am
  14    7   10 2
  15    8   17 1
  16    9   15 1
  17   11   12 1
  18   11   13 1
  19   11   14 1
  20   15   16 1
  21   15   33 1
  22   15   34 1
  23   16   35 1
  24   16   36 1
  25   16   37 1
  26   17   18 ar
  27   17   22 ar
  28   18   19 ar
  29   18   38 1
  30   19   20 ar
  31   19   39 1
  32   20   21 ar
  33   20   23 1
  34   21   22 ar
  35   21   40 1
  36   22   41 1
  37   23   24 1
  38   24   25 1
  39   24   42 1
  40   24   43 1
  41   25   26 ar
  42   25   30 ar
  43   26   27 ar
  44   26   44 1
  45   27   28 ar
  46   27   45 1
  47   28   29 ar
  48   28   46 1
  49   29   30 ar
  50   29   47 1
  51   30   48 1

#	End of record

