#	Name: ASD06620009
#	Creating user name:	WinNT
#	Creation time:	15. 06. 2019 21:07

#	Modifying user name:	WinNT
#	Modification time:	15. 06. 2019 21:07

#	Program:	/corina/corina34_cracker 3.40 0067  02.08.2006

@<TRIPOS>MOLECULE
ASD06620009
  61   62    0    0    0
SMALL
NO_CHARGES


@<TRIPOS>ATOM
   1 C1             1.3553     9.1783     4.4720 C.2     
   2 C2             1.0699    10.1914     5.4124 C.2     
   3 C3             0.6651    11.4136     4.9731 C.2     
   4 C4             0.5368    11.6506     3.5922 C.2     
   5 C5             0.8123    10.6736     2.7053 C.2     
   6 N6             1.2206     9.4404     3.1312 N.pl3   
   7 N7             1.7530     7.9251     4.6142 N.2     
   8 C8             1.8860     7.3661     3.3964 C.2     
   9 C9             1.5551     8.3036     2.4594 C.2     
  10 C10            2.3105     5.9810     3.1219 C.2     
  11 O11            2.3948     5.5873     1.9755 O.2     
  12 O12            2.6051     5.1518     4.1425 O.3     
  13 C13            1.5570     8.1148     0.9643 C.3     
  14 C14            2.9317     8.4868     0.4050 C.3     
  15 C15            2.9336     8.2950    -1.1130 C.3     
  16 C16            4.3083     8.6670    -1.6723 C.3     
  17 O17            4.3100     8.4879    -3.0900 O.3     
  18 Si18           5.6753     8.9990    -3.8215 Si      
  19 C19            6.0556    10.7404    -3.2796 C.3     
  20 C20            7.1459    11.3275    -4.1783 C.3     
  21 C21            4.7913    11.5954    -3.3866 C.3     
  22 C22            7.0882     7.8796    -3.3511 C.3     
  23 C23            7.6297     8.2904    -1.9803 C.3     
  24 C24            6.5946     6.4327    -3.2917 C.3     
  25 C25            5.4414     8.9607    -5.6694 C.3     
  26 C26            5.3364     7.5088    -6.1402 C.3     
  27 C27            4.1590     9.7100    -6.0368 C.3     
  28 Cl28           0.3078    12.6748     6.1112 Cl      
  29 H29            1.1715     9.9981     6.4701 H       
  30 H30            0.2155    12.6201     3.2410 H       
  31 H31            0.7099    10.8671     1.6477 H       
  32 H32            2.8787     4.2532     3.9131 H       
  33 H33            1.3389     7.0730     0.7294 H       
  34 H34            0.7971     8.7550     0.5162 H       
  35 H35            3.1497     9.5286     0.6399 H       
  36 H36            3.6916     7.8465     0.8530 H       
  37 H37            2.7155     7.2532    -1.3479 H       
  38 H38            2.1737     8.9353    -1.5610 H       
  39 H39            4.5263     9.7088    -1.4374 H       
  40 H40            5.0682     8.0268    -1.2243 H       
  41 H41            6.4021    10.7319    -2.2462 H       
  42 H42            6.7993    11.3361    -5.2117 H       
  43 H43            7.3684    12.3464    -3.8613 H       
  44 H44            8.0466    10.7184    -4.1021 H       
  45 H45            4.5274    11.7240    -4.4363 H       
  46 H46            3.9727    11.1005    -2.8641 H       
  47 H47            4.9732    12.5709    -2.9355 H       
  48 H48            7.8808     7.9629    -4.0947 H       
  49 H49            6.8857     8.0701    -1.2148 H       
  50 H50            8.5436     7.7350    -1.7693 H       
  51 H51            7.8456     9.3588    -1.9803 H       
  52 H52            6.3004     6.1079    -4.2898 H       
  53 H53            7.3942     5.7909    -2.9218 H       
  54 H54            5.7376     6.3684    -2.6213 H       
  55 H55            6.2930     9.4389    -6.1534 H       
  56 H56            5.0895     7.4879    -7.2017 H       
  57 H57            6.2892     7.0047    -5.9789 H       
  58 H58            4.5556     6.9993    -5.5755 H       
  59 H59            4.2944    10.7753    -5.8497 H       
  60 H60            3.9354     9.5520    -7.0918 H       
  61 H61            3.3337     9.3366    -5.4306 H       
@<TRIPOS>BOND
   1    1    2 1
   2    1    6 1
   3    1    7 2
   4    2    3 2
   5    2   29 1
   6    3    4 1
   7    3   28 1
   8    4    5 2
   9    4   30 1
  10    5    6 1
  11    5   31 1
  12    6    9 1
  13    7    8 1
  14    8    9 2
  15    8   10 1
  16    9   13 1
  17   10   11 2
  18   10   12 1
  19   12   32 1
  20   13   14 1
  21   13   33 1
  22   13   34 1
  23   14   15 1
  24   14   35 1
  25   14   36 1
  26   15   16 1
  27   15   37 1
  28   15   38 1
  29   16   17 1
  30   16   39 1
  31   16   40 1
  32   17   18 1
  33   18   19 1
  34   18   22 1
  35   18   25 1
  36   19   20 1
  37   19   21 1
  38   19   41 1
  39   20   42 1
  40   20   43 1
  41   20   44 1
  42   21   45 1
  43   21   46 1
  44   21   47 1
  45   22   23 1
  46   22   24 1
  47   22   48 1
  48   23   49 1
  49   23   50 1
  50   23   51 1
  51   24   52 1
  52   24   53 1
  53   24   54 1
  54   25   26 1
  55   25   27 1
  56   25   55 1
  57   26   56 1
  58   26   57 1
  59   26   58 1
  60   27   59 1
  61   27   60 1
  62   27   61 1

#	End of record

