#	Name: ASD01913447
#	Creating user name:	WinNT
#	Creation time:	15. 06. 2019 20:01

#	Modifying user name:	WinNT
#	Modification time:	15. 06. 2019 20:01

#	Program:	/corina/corina34_cracker 3.40 0067  02.08.2006

@<TRIPOS>MOLECULE
ASD01913447
  35   37    0    0    0
SMALL
NO_CHARGES


@<TRIPOS>ATOM
   1 C1             0.8708     0.1030    -1.0251 C.ar    
   2 C2             0.0078    -0.0109     0.0600 C.ar    
   3 C3             0.3607     0.6144     1.2515 C.ar    
   4 N4             1.4962     1.2905     1.3099 N.ar    
   5 C5             2.2876     1.3754     0.2595 C.ar    
   6 N6             1.9884     0.7971    -0.8864 N.ar    
   7 C7            -1.0683    -2.0652    -0.1432 C.ar    
   8 C8            -2.2267    -2.8327    -0.1631 C.ar    
   9 N9            -2.1485    -4.1472    -0.2672 N.ar    
  10 C10           -0.9700    -4.7365    -0.3531 C.ar    
  11 C11            0.1934    -3.9737    -0.3337 C.ar    
  12 N12            0.1170    -2.6532    -0.2293 N.ar    
  13 N13            1.4366    -4.5955    -0.4235 N.am    
  14 C14            2.5573    -3.8519    -0.5106 C.2     
  15 O15           -1.1504    -0.7148    -0.0414 O.3     
  16 C16            3.8662    -4.5084    -0.7335 C.ar    
  17 C17            5.0208    -3.7343    -0.8227 C.ar    
  18 C18            6.2385    -4.3630    -1.0314 C.ar    
  19 C19            6.2587    -5.7442    -1.1436 C.ar    
  20 C20            5.0708    -6.4514    -1.0448 C.ar    
  21 N21            3.9299    -5.8301    -0.8411 N.ar    
  22 O22            2.4938    -2.6429    -0.4064 O.2     
  23 C23            5.0877    -7.9534    -1.1662 C.3     
  24 H24            0.6341    -0.3719    -1.9657 H       
  25 H25           -0.2832     0.5493     2.1161 H       
  26 H26            3.2078     1.9350     0.3400 H       
  27 H27           -3.1922    -2.3538    -0.0930 H       
  28 H28           -0.9092    -5.8114    -0.4381 H       
  29 H29            1.4958    -5.5637    -0.4232 H       
  30 H30            4.9680    -2.6595    -0.7309 H       
  31 H31            7.1507    -3.7895    -1.1052 H       
  32 H32            7.1910    -6.2644    -1.3069 H       
  33 H33            5.2244    -8.3962    -0.1796 H       
  34 H34            4.1431    -8.2944    -1.5898 H       
  35 H35            5.9081    -8.2561    -1.8170 H       
@<TRIPOS>BOND
   1    1    2 ar
   2    1    6 ar
   3    1   24 1
   4    2    3 ar
   5    2   15 1
   6    3    4 ar
   7    3   25 1
   8    4    5 ar
   9    5    6 ar
  10    5   26 1
  11    7    8 ar
  12    7   12 ar
  13    7   15 1
  14    8    9 ar
  15    8   27 1
  16    9   10 ar
  17   10   11 ar
  18   10   28 1
  19   11   12 ar
  20   11   13 1
  21   13   14 am
  22   13   29 1
  23   14   16 1
  24   14   22 2
  25   16   17 ar
  26   16   21 ar
  27   17   18 ar
  28   17   30 1
  29   18   19 ar
  30   18   31 1
  31   19   20 ar
  32   19   32 1
  33   20   21 ar
  34   20   23 1
  35   23   33 1
  36   23   34 1
  37   23   35 1

#	End of record

