#	Name: ASD01120353
#	Creating user name:	WinNT
#	Creation time:	15. 06. 2019 18:59

#	Modifying user name:	WinNT
#	Modification time:	15. 06. 2019 18:59

#	Program:	/corina/corina34_cracker 3.40 0067  02.08.2006

@<TRIPOS>MOLECULE
ASD01120353
  30   31    0    0    0
SMALL
NO_CHARGES


@<TRIPOS>ATOM
   1 C1            -0.0168     1.3856     0.0097 C.ar    
   2 C2             0.0021    -0.0041     0.0020 C.ar    
   3 C3            -1.1730    -0.7219     0.0098 C.ar    
   4 C4            -2.3931    -0.0523     0.0256 C.ar    
   5 C5            -2.4100     1.3565     0.0333 C.ar    
   6 C6            -1.2012     2.0645     0.0303 C.ar    
   7 N7            -3.7002    -0.4792     0.0370 N.pl3   
   8 C8            -4.5292     0.6263     0.0516 C.2     
   9 C9            -3.7687     1.7533     0.0497 C.2     
  10 C10           -4.2805     3.1707     0.0627 C.3     
  11 C11           -4.4391     3.6424     1.5095 C.3     
  12 C12           -4.9509     5.0598     1.5225 C.2     
  13 O13           -5.1671     5.6846     2.6906 O.3     
  14 O14           -5.1666     5.6337     0.4814 O.2     
  15 C15           -5.9975     0.5897     0.0673 C.2     
  16 O16           -6.6314     1.6270     0.0791 O.2     
  17 O17           -6.6425    -0.5946     0.0687 O.3     
  18 Br18           1.6129     2.3448    -0.0007 Br      
  19 N19           -1.1386    -2.2017     0.0011 N.pl3   
  20 O20           -0.0700    -2.7860    -0.0131 O.2     
  21 O21           -2.1790    -2.8351     0.0080 O.2     
  22 H22            0.9475    -0.5260    -0.0105 H       
  23 H23           -1.2063     3.1445     0.0365 H       
  24 H24           -3.9923    -1.4042     0.0346 H       
  25 H25           -3.5721     3.8175    -0.4548 H       
  26 H26           -5.2461     3.2129    -0.4412 H       
  27 H27           -5.1476     2.9955     2.0269 H       
  28 H28           -3.4735     3.6001     2.0134 H       
  29 H29           -5.4955     6.5931     2.6484 H       
  30 H30           -7.6090    -0.5681     0.0793 H       
@<TRIPOS>BOND
   1    1    2 ar
   2    1   18 1
   3    1    6 ar
   4    2    3 ar
   5    2   22 1
   6    3   19 1
   7    3    4 ar
   8    4    5 ar
   9    4    7 1
  10    5    6 ar
  11    5    9 1
  12    6   23 1
  13    7    8 1
  14    7   24 1
  15    8    9 2
  16    8   15 1
  17    9   10 1
  18   10   11 1
  19   10   25 1
  20   10   26 1
  21   11   12 1
  22   11   27 1
  23   11   28 1
  24   12   13 1
  25   12   14 2
  26   13   29 1
  27   15   16 2
  28   15   17 1
  29   17   30 1
  30   19   20 2
  31   19   21 2

#	End of record

