#	Name: ASD01901197
#	Creating user name:	WinNT
#	Creation time:	15. 06. 2019 19:53

#	Modifying user name:	WinNT
#	Modification time:	15. 06. 2019 19:53

#	Program:	/corina/corina34_cracker 3.40 0067  02.08.2006

@<TRIPOS>MOLECULE
ASD01901197
  55   58    0    0    0
SMALL
NO_CHARGES


@<TRIPOS>ATOM
   1 C1             0.2143     1.5457    -1.9318 C.ar    
   2 C2             0.2604     0.1881    -2.1702 C.ar    
   3 C3             1.4790    -0.4517    -2.3140 C.ar    
   4 C4             2.6594     0.2643    -2.2199 C.ar    
   5 C5             2.6291     1.6224    -1.9814 C.ar    
   6 C6             1.4023     2.2754    -1.8356 C.ar    
   7 C7             1.3626     3.6854    -1.5887 C.1     
   8 C8             1.3301     4.8414    -1.3864 C.1     
   9 C9             1.2904     6.2514    -1.1395 C.ar    
  10 C10            2.4797     6.9795    -1.0436 C.ar    
  11 C11            2.4377     8.3382    -0.8056 C.ar    
  12 C12            1.2135     8.9832    -0.6612 C.ar    
  13 C13            0.0278     8.2617    -0.7560 C.ar    
  14 C14            0.0621     6.9038    -0.9996 C.ar    
  15 N15            1.1747    10.3641    -0.4189 N.am    
  16 C16            1.1265    11.2181    -1.4576 C.2     
  17 C17            1.1849    12.7051    -1.2135 C.3     
  18 C18            0.4697    13.0276     0.1005 C.3     
  19 N19            0.9122    12.0960     1.1397 N.am    
  20 C20            1.1806    10.8142     0.8469 C.2     
  21 O21            1.0364    10.7922    -2.5892 O.2     
  22 O22            1.4400    10.0427     1.7495 O.2     
  23 C23            0.8082    14.4591     0.5212 C.3     
  24 C24           -1.0199    12.8987    -0.0881 C.ar    
  25 C25           -1.7624    12.0667     0.7388 C.ar    
  26 C26           -3.1277    11.9779     0.5317 C.ar    
  27 C27           -3.7058    12.7200    -0.4906 C.ar    
  28 N28           -2.9648    13.5016    -1.2580 N.ar    
  29 C29           -1.6616    13.6113    -1.0811 C.ar    
  30 F30           -1.1587     8.8921    -0.6151 F       
  31 F31            3.5867     9.0427    -0.7123 F       
  32 C32            1.0588    12.5689     2.5185 C.3     
  33 O33           -5.0434    12.6417    -0.7040 O.3     
  34 C34           -5.5774    13.4290    -1.7704 C.3     
  35 H35           -0.7376     2.0445    -1.8243 H       
  36 H36           -0.6569    -0.3772    -2.2445 H       
  37 H37            1.5089    -1.5151    -2.5001 H       
  38 H38            3.6068    -0.2417    -2.3332 H       
  39 H39            3.5512     2.1798    -1.9079 H       
  40 H40            3.4304     6.4794    -1.1552 H       
  41 H41           -0.8589     6.3452    -1.0779 H       
  42 H42            2.2255    13.0230    -1.1493 H       
  43 H43            0.6933    13.2284    -2.0337 H       
  44 H44            1.8855    14.5524     0.6581 H       
  45 H45            0.4788    15.1527    -0.2524 H       
  46 H46            0.3014    14.6920     1.4577 H       
  47 H47           -1.2852    11.5013     1.5256 H       
  48 H48           -3.7356    11.3400     1.1561 H       
  49 H49           -1.0893    14.2634    -1.7242 H       
  50 H50            0.1172    12.4339     3.0509 H       
  51 H51            1.8428    11.9987     3.0168 H       
  52 H52            1.3253    13.6258     2.5138 H       
  53 H53           -6.6546    13.2742    -1.8322 H       
  54 H54           -5.3720    14.4828    -1.5821 H       
  55 H55           -5.1129    13.1306    -2.7102 H       
@<TRIPOS>BOND
   1    1    2 ar
   2    1    6 ar
   3    1   35 1
   4    2    3 ar
   5    2   36 1
   6    3    4 ar
   7    3   37 1
   8    4    5 ar
   9    4   38 1
  10    5    6 ar
  11    5   39 1
  12    6    7 1
  13    7    8 3
  14    8    9 1
  15    9   10 ar
  16    9   14 ar
  17   10   11 ar
  18   10   40 1
  19   11   12 ar
  20   11   31 1
  21   12   13 ar
  22   12   15 1
  23   13   14 ar
  24   13   30 1
  25   14   41 1
  26   15   16 am
  27   15   20 am
  28   16   17 1
  29   16   21 2
  30   17   18 1
  31   17   42 1
  32   17   43 1
  33   18   19 1
  34   18   23 1
  35   18   24 1
  36   19   20 am
  37   19   32 1
  38   20   22 2
  39   23   44 1
  40   23   45 1
  41   23   46 1
  42   24   25 ar
  43   24   29 ar
  44   25   26 ar
  45   25   47 1
  46   26   27 ar
  47   26   48 1
  48   27   28 ar
  49   27   33 1
  50   28   29 ar
  51   29   49 1
  52   32   50 1
  53   32   51 1
  54   32   52 1
  55   33   34 1
  56   34   53 1
  57   34   54 1
  58   34   55 1

#	End of record

