#	Name: ASD01208964
#	Creating user name:	WinNT
#	Creation time:	15. 06. 2019 19:10

#	Modifying user name:	WinNT
#	Modification time:	15. 06. 2019 19:10

#	Program:	/corina/corina34_cracker 3.40 0067  02.08.2006

@<TRIPOS>MOLECULE
ASD01208964
  49   52    0    0    0
SMALL
NO_CHARGES


@<TRIPOS>ATOM
   1 C1            -2.1617     1.6110    -0.9616 C.3     
   2 C2            -2.1456     0.0863    -1.1078 C.3     
   3 C3            -1.4126    -0.2839    -2.4009 C.3     
   4 C4            -2.0990     0.4058    -3.5827 C.3     
   5 C5            -2.8192     2.2275    -2.1990 C.3     
   6 C6            -1.4201    -0.5348     0.0876 C.3     
   7 C7            -1.5300    -2.0591     0.0150 C.3     
   8 C8            -0.7065    -2.6752     1.1166 C.2     
   9 N9             0.6325    -2.5222     1.1230 N.am    
  10 C10            1.4025    -3.1748     2.0802 C.2     
  11 N11           -2.9314    -2.4558     0.1727 N.pl3   
  12 N12           -3.8376    -2.7107    -0.8647 N.2     
  13 C13           -4.9874    -3.0366    -0.3322 C.2     
  14 C14           -4.8507    -2.9998     1.0593 C.2     
  15 C15           -3.5758    -2.6457     1.3431 C.2     
  16 O16           -1.2488    -3.3087     1.9973 O.2     
  17 O17           -2.1072     1.8187    -3.3687 O.3     
  18 N18            2.6940    -3.1028     2.1837 N.2     
  19 C19            3.2565    -3.7926     3.1584 C.2     
  20 C20            2.4216    -4.4907     3.9313 C.2     
  21 S21            0.7792    -4.2249     3.3499 S.3     
  22 S22           -6.1132    -3.3585     2.2349 S.o2    
  23 C23           -5.9589    -5.1408     2.5351 C.3     
  24 O24           -5.7348    -2.6236     3.3907 O.2     
  25 O25           -7.3235    -3.0715     1.5479 O.2     
  26 C26           -7.0048    -5.7983     3.4378 C.3     
  27 C27           -7.0265    -6.0543     1.9295 C.3     
  28 F28            2.7744    -5.2644     4.9811 F       
  29 H29           -2.7293     1.8857    -0.0725 H       
  30 H30           -1.1398     1.9790    -0.8705 H       
  31 H31           -3.1688    -0.2869    -1.1490 H       
  32 H32           -0.3755     0.0459    -2.3389 H       
  33 H33           -1.4444    -1.3644    -2.5411 H       
  34 H34           -1.5560     0.1804    -4.5005 H       
  35 H35           -3.1240     0.0453    -3.6687 H       
  36 H36           -3.8536     1.8908    -2.2669 H       
  37 H37           -2.7950     3.3144    -2.1201 H       
  38 H38           -0.3696    -0.2448     0.0658 H       
  39 H39           -1.8755    -0.1814     1.0127 H       
  40 H40           -1.1612    -2.4044    -0.9509 H       
  41 H41            1.0593    -1.9570     0.4603 H       
  42 H42           -5.8869    -3.2900    -0.8737 H       
  43 H43           -3.1521    -2.5288     2.3296 H       
  44 H44            4.3243    -3.7925     3.3201 H       
  45 H45           -4.9392    -5.5226     2.5855 H       
  46 H46           -6.6732    -6.6128     4.0818 H       
  47 H47           -7.7856    -5.1599     3.8512 H       
  48 H48           -7.8216    -5.5843     1.3507 H       
  49 H49           -6.7092    -7.0372     1.5812 H       
@<TRIPOS>BOND
   1    1    2 1
   2    1    5 1
   3    1   29 1
   4    1   30 1
   5    2    3 1
   6    2    6 1
   7    2   31 1
   8    3    4 1
   9    3   32 1
  10    3   33 1
  11    4   17 1
  12    4   34 1
  13    4   35 1
  14    5   17 1
  15    5   36 1
  16    5   37 1
  17    6    7 1
  18    6   38 1
  19    6   39 1
  20    7    8 1
  21    7   11 1
  22    7   40 1
  23    8    9 am
  24    8   16 2
  25    9   10 1
  26    9   41 1
  27   10   18 2
  28   10   21 1
  29   11   12 1
  30   11   15 1
  31   12   13 2
  32   13   14 1
  33   13   42 1
  34   14   15 2
  35   14   22 1
  36   15   43 1
  37   18   19 1
  38   19   20 2
  39   19   44 1
  40   20   21 1
  41   20   28 1
  42   22   23 1
  43   22   24 2
  44   22   25 2
  45   23   26 1
  46   23   27 1
  47   23   45 1
  48   26   27 1
  49   26   46 1
  50   26   47 1
  51   27   48 1
  52   27   49 1

#	End of record

