#	Name: ASD01885442
#	Creating user name:	WinNT
#	Creation time:	15. 06. 2019 19:49

#	Modifying user name:	WinNT
#	Modification time:	15. 06. 2019 19:49

#	Program:	/corina/corina34_cracker 3.40 0067  02.08.2006

@<TRIPOS>MOLECULE
ASD01885442
  47   49    0    0    0
SMALL
NO_CHARGES


@<TRIPOS>ATOM
   1 C1             0.2003     1.2187     0.1515 C.ar    
   2 C2             0.3153    -0.1712     0.1742 C.ar    
   3 N3            -0.7446    -1.0163     0.2431 N.2     
   4 C4            -1.8513    -0.9019    -0.3958 C.2     
   5 C5            -2.1203     0.2627    -1.3124 C.3     
   6 C6            -2.1095     1.5236    -0.4857 C.2     
   7 N7            -1.0144     1.8913     0.1793 N.am    
   8 C8             1.3536     2.0000     0.0920 C.ar    
   9 C9             2.6058     1.4105     0.0504 C.ar    
  10 C10            2.7213     0.0240     0.0674 C.ar    
  11 C11            1.5930    -0.7574     0.1283 C.ar    
  12 C12           -2.8858    -1.9368    -0.2289 C.ar    
  13 O13           -3.1072     2.2109    -0.4267 O.2     
  14 C14           -2.6175    -3.0808     0.5298 C.ar    
  15 C15           -3.5865    -4.0514     0.6867 C.ar    
  16 C16           -4.8258    -3.9012     0.0968 C.ar    
  17 C17           -5.1086    -2.7634    -0.6643 C.ar    
  18 C18           -4.1386    -1.7761    -0.8226 C.ar    
  19 C19           -6.3946    -2.6104    -1.2754 C.1     
  20 N20           -7.4148    -2.4891    -1.7602 N.1     
  21 N21            3.7528     2.2075    -0.0090 N.am    
  22 C22            4.8797     1.8146     0.6173 C.2     
  23 C23            6.1491     2.6101     0.4539 C.3     
  24 O24            4.8720     0.8207     1.3125 O.2     
  25 C25            7.2698     1.9541     1.2629 C.3     
  26 C26            6.5414     2.6464    -1.0245 C.3     
  27 C27            5.9249     4.0374     0.9572 C.3     
  28 H28           -1.3443     0.3168    -2.0760 H       
  29 H29           -3.0948     0.1412    -1.7853 H       
  30 H30           -1.0701     2.6900     0.7269 H       
  31 H31            1.2694     3.0766     0.0779 H       
  32 H32            3.6971    -0.4375     0.0325 H       
  33 H33            1.6882    -1.8331     0.1414 H       
  34 H34           -1.6500    -3.2052     0.9935 H       
  35 H35           -3.3740    -4.9328     1.2736 H       
  36 H36           -5.5786    -4.6651     0.2235 H       
  37 H37           -4.3520    -0.8948    -1.4093 H       
  38 H38            3.7377     3.0433    -0.5011 H       
  39 H39            7.4295     0.9372     0.9043 H       
  40 H40            8.1880     2.5294     1.1447 H       
  41 H41            6.9903     1.9282     2.3162 H       
  42 H42            5.7431     3.1138    -1.6009 H       
  43 H43            7.4596     3.2218    -1.1428 H       
  44 H44            6.7012     1.6296    -1.3832 H       
  45 H45            5.6454     4.0115     2.0105 H       
  46 H46            6.8431     4.6128     0.8390 H       
  47 H47            5.1265     4.5048     0.3808 H       
@<TRIPOS>BOND
   1    1    2 ar
   2    1    8 ar
   3    1    7 1
   4    2    3 1
   5    2   11 ar
   6    3    4 2
   7    4    5 1
   8    4   12 1
   9    5    6 1
  10    5   28 1
  11    5   29 1
  12    6    7 am
  13    6   13 2
  14    7   30 1
  15    8    9 ar
  16    8   31 1
  17    9   10 ar
  18    9   21 1
  19   10   11 ar
  20   10   32 1
  21   11   33 1
  22   12   14 ar
  23   12   18 ar
  24   14   15 ar
  25   14   34 1
  26   15   16 ar
  27   15   35 1
  28   16   17 ar
  29   16   36 1
  30   17   18 ar
  31   17   19 1
  32   18   37 1
  33   19   20 3
  34   21   22 am
  35   21   38 1
  36   22   23 1
  37   22   24 2
  38   23   25 1
  39   23   26 1
  40   23   27 1
  41   25   39 1
  42   25   40 1
  43   25   41 1
  44   26   42 1
  45   26   43 1
  46   26   44 1
  47   27   45 1
  48   27   46 1
  49   27   47 1

#	End of record

