#	Name: ASD01900122
#	Creating user name:	WinNT
#	Creation time:	15. 06. 2019 19:51

#	Modifying user name:	WinNT
#	Modification time:	15. 06. 2019 19:51

#	Program:	/corina/corina34_cracker 3.40 0067  02.08.2006

@<TRIPOS>MOLECULE
ASD01900122
  41   44    0    0    0
SMALL
NO_CHARGES


@<TRIPOS>ATOM
   1 C1             0.2404     1.0372    -0.2029 C.ar    
   2 C2            -0.8940     1.3081    -0.9508 C.ar    
   3 C3            -0.9701     2.4939    -1.6650 C.ar    
   4 C4             0.1001     3.3720    -1.6041 C.ar    
   5 C5             1.2094     3.0345    -0.8315 C.ar    
   6 N6             1.2422     1.8885    -0.1626 N.ar    
   7 N7             3.4377     3.6411    -0.0106 N.am    
   8 C8             4.5662     4.4702    -0.0165 C.ar    
   9 C9             4.4152     5.8476    -0.1086 C.ar    
  10 C10            5.5294     6.6657    -0.1143 C.ar    
  11 C11            6.8006     6.1085    -0.0278 C.ar    
  12 C12            6.9497     4.7315     0.0642 C.ar    
  13 C13            5.8359     3.9151     0.0756 C.ar    
  14 N14            7.9302     6.9365    -0.0340 N.am    
  15 S15            9.5213     6.4736     0.0595 S.o2    
  16 S16            7.9674     8.5921    -0.1437 S.o2    
  17 C17           10.4790     7.9538     0.0054 C.ar    
  18 C18           11.8588     8.1141     0.0513 C.ar    
  19 C19           12.4201     9.3730    -0.0045 C.ar    
  20 C20           11.6049    10.4844    -0.1073 C.ar    
  21 C21           10.2350    10.3279    -0.1534 C.ar    
  22 C22            9.6673     9.0603    -0.1007 C.ar    
  23 O23            9.7052     5.9213     1.3558 O.2     
  24 O24            9.8063     5.7648    -1.1386 O.2     
  25 O25            7.4910     8.9212    -1.4415 O.2     
  26 O26            7.3818     9.0888     1.0519 O.2     
  27 F27            5.3835     8.0058    -0.2044 F       
  28 C28            2.3618     3.9620    -0.7563 C.2     
  29 O29            2.3373     5.0125    -1.3671 O.2     
  30 H30            0.3011     0.1164     0.3582 H       
  31 H31           -1.7110     0.6021    -0.9775 H       
  32 H32           -1.8435     2.7278    -2.2557 H       
  33 H33            0.0749     4.3047    -2.1481 H       
  34 H34            3.4302     2.8358     0.5301 H       
  35 H35            3.4276     6.2795    -0.1761 H       
  36 H36            7.9369     4.2986     0.1310 H       
  37 H37            5.9526     2.8438     0.1471 H       
  38 H38           12.4966     7.2462     0.1316 H       
  39 H39           13.4931     9.4899     0.0324 H       
  40 H40           12.0390    11.4724    -0.1510 H       
  41 H41            9.5989    11.1969    -0.2334 H       
@<TRIPOS>BOND
   1    1    2 ar
   2    1    6 ar
   3    1   30 1
   4    2    3 ar
   5    2   31 1
   6    3    4 ar
   7    3   32 1
   8    4    5 ar
   9    4   33 1
  10    5    6 ar
  11    5   28 1
  12    7    8 1
  13    7   28 am
  14    7   34 1
  15    8    9 ar
  16    8   13 ar
  17    9   10 ar
  18    9   35 1
  19   10   11 ar
  20   10   27 1
  21   11   12 ar
  22   11   14 1
  23   12   13 ar
  24   12   36 1
  25   13   37 1
  26   14   15 am
  27   14   16 am
  28   15   17 1
  29   15   23 2
  30   15   24 2
  31   16   22 1
  32   16   25 2
  33   16   26 2
  34   17   18 ar
  35   17   22 ar
  36   18   19 ar
  37   18   38 1
  38   19   20 ar
  39   19   39 1
  40   20   21 ar
  41   20   40 1
  42   21   22 ar
  43   21   41 1
  44   28   29 2

#	End of record

