#	Name: ASD01885887
#	Creating user name:	WinNT
#	Creation time:	15. 06. 2019 19:50

#	Modifying user name:	WinNT
#	Modification time:	15. 06. 2019 19:50

#	Program:	/corina/corina34_cracker 3.40 0067  02.08.2006

@<TRIPOS>MOLECULE
ASD01885887
  46   49    0    0    0
SMALL
NO_CHARGES


@<TRIPOS>ATOM
   1 C1            -0.0170     1.4037     0.0098 C.ar    
   2 C2             1.2138     2.1080     0.0018 C.ar    
   3 C3             1.1960     3.5258     0.0097 C.ar    
   4 C4            -0.0387     4.1599     0.0249 C.ar    
   5 C5            -1.2083     3.3914     0.0319 C.ar    
   6 N6            -1.1703     2.0724     0.0299 N.ar    
   7 C7             0.0021    -0.0041     0.0020 C.ar    
   8 C8             1.1925    -0.6629    -0.0129 C.ar    
   9 C9             2.3992     0.0335    -0.0203 C.ar    
  10 C10            2.4200     1.3962    -0.0132 C.ar    
  11 C11            1.2059    -2.1698    -0.0211 C.3     
  12 C12            2.4549     4.3054     0.0024 C.ar    
  13 C13            1.1966    -2.6721    -1.4663 C.3     
  14 C14            1.2101    -4.1790    -1.4745 C.ar    
  15 C15            2.6330     5.3384    -0.9182 C.ar    
  16 C16            3.8071     6.0619    -0.9207 C.ar    
  17 C17            4.8091     5.7642    -0.0107 C.ar    
  18 C18            4.6372     4.7386     0.9056 C.ar    
  19 C19            3.4644     4.0130     0.9199 C.ar    
  20 C20            0.2256    -4.8670    -2.1579 C.ar    
  21 C21            0.2470    -6.2535    -2.1592 C.ar    
  22 C22            1.2624    -6.8984    -1.4701 C.ar    
  23 C23            2.2130    -6.1432    -0.8092 C.ar    
  24 N24            2.1643    -4.8258    -0.8340 N.ar    
  25 F25            5.9575     6.4758    -0.0170 F       
  26 C26           -2.5233     4.0766     0.0481 C.2     
  27 N27           -3.6602     3.3529     0.0551 N.am    
  28 O28           -2.5757     5.2905     0.0552 O.2     
  29 H29           -0.0964     5.2383     0.0317 H       
  30 H30           -0.9245    -0.5588     0.0083 H       
  31 H31            3.3303    -0.5137    -0.0319 H       
  32 H32            3.3619     1.9246    -0.0197 H       
  33 H33            2.1040    -2.5279     0.4822 H       
  34 H34            0.3242    -2.5439     0.4992 H       
  35 H35            0.2986    -2.3140    -1.9697 H       
  36 H36            2.0784    -2.2980    -1.9866 H       
  37 H37            1.8529     5.5709    -1.6280 H       
  38 H38            3.9461     6.8616    -1.6332 H       
  39 H39            5.4212     4.5099     1.6123 H       
  40 H40            3.3314     3.2140     1.6342 H       
  41 H41           -0.5509    -4.3316    -2.6840 H       
  42 H42           -0.5096    -6.8176    -2.6843 H       
  43 H43            1.3100    -7.9771    -1.4495 H       
  44 H44            3.0071    -6.6379    -0.2697 H       
  45 H45           -3.6183     2.3838     0.0494 H       
  46 H46           -4.5204     3.8011     0.0657 H       
@<TRIPOS>BOND
   1    1    7 ar
   2    1    2 ar
   3    1    6 ar
   4    2    3 ar
   5    2   10 ar
   6    3    4 ar
   7    3   12 1
   8    4    5 ar
   9    4   29 1
  10    5    6 ar
  11    5   26 1
  12    7    8 ar
  13    7   30 1
  14    8   11 1
  15    8    9 ar
  16    9   10 ar
  17    9   31 1
  18   10   32 1
  19   11   13 1
  20   11   33 1
  21   11   34 1
  22   12   15 ar
  23   12   19 ar
  24   13   14 1
  25   13   35 1
  26   13   36 1
  27   14   20 ar
  28   14   24 ar
  29   15   16 ar
  30   15   37 1
  31   16   17 ar
  32   16   38 1
  33   17   18 ar
  34   17   25 1
  35   18   19 ar
  36   18   39 1
  37   19   40 1
  38   20   21 ar
  39   20   41 1
  40   21   22 ar
  41   21   42 1
  42   22   23 ar
  43   22   43 1
  44   23   24 ar
  45   23   44 1
  46   26   27 am
  47   26   28 2
  48   27   45 1
  49   27   46 1

#	End of record

