#	Name: ASD01900446
#	Creating user name:	WinNT
#	Creation time:	15. 06. 2019 19:51

#	Modifying user name:	WinNT
#	Modification time:	15. 06. 2019 19:51

#	Program:	/corina/corina34_cracker 3.40 0067  02.08.2006

@<TRIPOS>MOLECULE
ASD01900446
  26   28    0    0    0
SMALL
NO_CHARGES


@<TRIPOS>ATOM
   1 C1            -0.0229     1.3968     0.0604 C.ar    
   2 C2            -0.0078    -0.0093     0.1318 C.ar    
   3 C3             1.2179    -0.6743     0.1253 C.ar    
   4 C4             2.3710     0.0817     0.0486 C.ar    
   5 C5             2.2814     1.4660    -0.0192 C.ar    
   6 N6             1.1186     2.0771    -0.0124 N.ar    
   7 N7            -2.1492     0.6989     0.1670 N.2     
   8 N8            -1.3125    -0.4216     0.1963 N.pl3   
   9 C9            -1.4337     1.7897     0.0933 C.2     
  10 N10           -1.9266     3.0973     0.0457 N.pl3   
  11 C11           -3.3053     3.3228    -0.0399 C.ar    
  12 C12           -3.8082     4.6149     0.0730 C.ar    
  13 C13           -5.1704     4.8349    -0.0124 C.ar    
  14 C14           -6.0336     3.7701    -0.2098 C.ar    
  15 C15           -5.5346     2.4827    -0.3225 C.ar    
  16 C16           -4.1723     2.2583    -0.2434 C.ar    
  17 F17           -7.3645     3.9871    -0.2921 F       
  18 F18           -2.9663     5.6537     0.2665 F       
  19 Cl19          -6.6199     1.1506    -0.5699 Cl      
  20 H20            1.2641    -1.7519     0.1791 H       
  21 H21            3.3372    -0.4008     0.0417 H       
  22 H22            3.1866     2.0522    -0.0786 H       
  23 H23           -1.6089    -1.3435     0.2530 H       
  24 H24           -1.3130     3.8482     0.0720 H       
  25 H25           -5.5617     5.8377     0.0752 H       
  26 H26           -3.7837     1.2549    -0.3359 H       
@<TRIPOS>BOND
   1    1    2 ar
   2    1    6 ar
   3    1    9 1
   4    2    3 ar
   5    2    8 1
   6    3    4 ar
   7    3   20 1
   8    4    5 ar
   9    4   21 1
  10    5    6 ar
  11    5   22 1
  12    7    8 1
  13    7    9 2
  14    8   23 1
  15    9   10 1
  16   10   11 1
  17   10   24 1
  18   11   12 ar
  19   11   16 ar
  20   12   13 ar
  21   12   18 1
  22   13   14 ar
  23   13   25 1
  24   14   15 ar
  25   14   17 1
  26   15   16 ar
  27   15   19 1
  28   16   26 1

#	End of record

