#	Name: ASD02030764
#	Creating user name:	WinNT
#	Creation time:	15. 06. 2019 20:16

#	Modifying user name:	WinNT
#	Modification time:	15. 06. 2019 20:16

#	Program:	/corina/corina34_cracker 3.40 0067  02.08.2006

@<TRIPOS>MOLECULE
ASD02030764
  43   45    0    0    0
SMALL
NO_CHARGES


@<TRIPOS>ATOM
   1 C1            -0.0400     1.2533     0.0097 C.2     
   2 C2             4.9564     0.3412     0.6422 C.2     
   3 C3             1.2200     1.9960     0.1118 C.2     
   4 C4             2.6097    -0.0137     0.3916 C.2     
   5 C5             1.2388     3.3378     0.0345 C.2     
   6 C6             3.5214     2.1310     0.3707 C.2     
   7 C7             3.8984    -0.5225     0.5707 C.2     
   8 N8            -0.7927     1.0489     1.1089 N.am    
   9 C9            -2.7477     0.3006     2.3736 C.3     
  10 C10           -2.1071     0.4132     0.9887 C.3     
  11 O11           -0.4087     0.8258    -1.0685 O.2     
  12 S12            2.9414     3.7969     0.2048 S.3     
  13 N13            2.4219     1.3350     0.2903 N.am    
  14 O14            1.6553    -0.7720     0.3254 O.2     
  15 N15            4.7368     1.6469     0.5403 N.2     
  16 C16            6.3553    -0.1828     0.8413 C.3     
  17 C17            7.0320    -0.3295    -0.4972 C.ar    
  18 C18            7.0218    -1.5491    -1.1467 C.ar    
  19 C19            7.6430    -1.6842    -2.3746 C.ar    
  20 C20            8.2748    -0.5997    -2.9537 C.ar    
  21 C21            8.2859     0.6213    -2.3060 C.ar    
  22 C22            7.6594     0.7592    -1.0792 C.ar    
  23 F23            7.6692     1.9522    -0.4454 F       
  24 C24            8.9696     1.8049    -2.9405 C.3     
  25 F25            8.0358     2.8252    -3.1509 F       
  26 F26            9.9827     2.2674    -2.0939 F       
  27 F27            9.5249     1.4210    -4.1659 F       
  28 C28            0.0604     4.2575    -0.1570 C.3     
  29 H29            4.0578    -1.5876     0.6512 H       
  30 H30           -0.4641     1.3226     1.9795 H       
  31 H31           -2.8633     1.2960     2.8024 H       
  32 H32           -3.7256    -0.1723     2.2841 H       
  33 H33           -2.1104    -0.3020     3.0207 H       
  34 H34           -2.7443     1.0159     0.3415 H       
  35 H35           -1.9914    -0.5822     0.5598 H       
  36 H36            6.9201     0.5151     1.4594 H       
  37 H37            6.3128    -1.1534     1.3354 H       
  38 H38            6.5287    -2.3971    -0.6950 H       
  39 H39            7.6348    -2.6378    -2.8814 H       
  40 H40            8.7603    -0.7066    -3.9125 H       
  41 H41           -0.3986     4.4659     0.8094 H       
  42 H42            0.3975     5.1908    -0.6080 H       
  43 H43           -0.6699     3.7809    -0.8109 H       
@<TRIPOS>BOND
   1    1   11 2
   2    1    3 1
   3    1    8 am
   4    2    7 2
   5    2   15 1
   6    2   16 1
   7    3    5 2
   8    3   13 1
   9    4   14 2
  10    4    7 1
  11    4   13 am
  12    5   28 1
  13    5   12 1
  14    6   12 1
  15    6   13 1
  16    6   15 2
  17    7   29 1
  18    8   10 1
  19    8   30 1
  20    9   10 1
  21    9   31 1
  22    9   32 1
  23    9   33 1
  24   10   34 1
  25   10   35 1
  26   16   36 1
  27   16   37 1
  28   16   17 1
  29   17   18 ar
  30   17   22 ar
  31   18   38 1
  32   18   19 ar
  33   19   39 1
  34   19   20 ar
  35   20   40 1
  36   20   21 ar
  37   21   22 ar
  38   21   24 1
  39   22   23 1
  40   24   27 1
  41   24   25 1
  42   24   26 1
  43   28   41 1
  44   28   42 1
  45   28   43 1

#	End of record

