#	Name: ASD03330757
#	Creating user name:	WinNT
#	Creation time:	15. 06. 2019 20:37

#	Modifying user name:	WinNT
#	Modification time:	15. 06. 2019 20:37

#	Program:	/corina/corina34_cracker 3.40 0067  02.08.2006

@<TRIPOS>MOLECULE
ASD03330757
  63   65    0    0    0
SMALL
NO_CHARGES


@<TRIPOS>ATOM
   1 C1             0.1041     1.1101     0.6812 C.2     
   2 N2             0.3210    -0.2284     0.7790 N.pl3   
   3 C3             1.3170     1.7208     0.7844 C.2     
   4 N4             2.2532     0.7569     0.9251 N.2     
   5 C5             1.6651    -0.4163     0.9172 C.2     
   6 C6             2.3460    -1.7240     1.0385 C.ar    
   7 C7             1.5641     3.1731     0.7484 C.2     
   8 O8             0.6338     3.9451     0.6160 O.2     
   9 C9             3.0668     5.0896     0.8265 C.3     
  10 N10            2.8211     3.6457     0.8622 N.am    
  11 C11            4.4983     5.3517     0.3543 C.3     
  12 C12            2.8797     5.6653     2.2065 C.2     
  13 O13            2.5714     4.9409     3.1291 O.2     
  14 C14           -0.7178    -1.2617     0.7530 C.3     
  15 C15           -1.6747    -0.9829    -0.4103 C.3     
  16 C16           -2.7832    -0.0407     0.0483 C.3     
  17 N17           -2.2862     0.9138     1.0412 N.3     
  18 C18           -1.2339     1.7723     0.4774 C.3     
  19 C19            3.6458    -1.8838     0.5565 C.ar    
  20 C20            1.6928    -2.8000     1.6401 C.ar    
  21 C21            2.3316    -4.0177     1.7509 C.ar    
  22 C22            3.6198    -4.1737     1.2661 C.ar    
  23 C23            4.2763    -3.1058     0.6721 C.ar    
  24 C24           -3.3839     1.7195     1.5923 C.3     
  25 N25            3.0549     6.9852     2.4155 N.am    
  26 C26            2.8729     7.5448     3.7571 C.3     
  27 C27            4.6422     4.9146    -1.1048 C.3     
  28 C28            4.4522     3.3997    -1.2045 C.3     
  29 C29            3.5826     5.6185    -1.9550 C.3     
  30 C30            6.0357     5.2884    -1.6142 C.3     
  31 Cl31           5.8907    -3.3090     0.0668 Cl      
  32 F32            4.2411    -5.3682     1.3775 F       
  33 H33            2.3652     5.5606     0.1381 H       
  34 H34            3.5631     3.0300     0.9678 H       
  35 H35            4.7195     6.4158     0.4383 H       
  36 H36            5.1945     4.7859     0.9734 H       
  37 H37           -0.2556    -2.2396     0.6182 H       
  38 H38           -1.2713    -1.2456     1.6919 H       
  39 H39           -1.1238    -0.5224    -1.2304 H       
  40 H40           -2.1139    -1.9205    -0.7511 H       
  41 H41           -3.1666     0.5063    -0.8130 H       
  42 H42           -3.5910    -0.6259     0.4877 H       
  43 H43           -1.2429     2.7386     0.9816 H       
  44 H44           -1.4117     1.9144    -0.5886 H       
  45 H45            4.1572    -1.0527     0.0936 H       
  46 H46            0.6885    -2.6797     2.0189 H       
  47 H47            1.8264    -4.8508     2.2169 H       
  48 H48           -4.1111     1.0638     2.0712 H       
  49 H49           -2.9871     2.4200     2.3272 H       
  50 H50           -3.8682     2.2727     0.7876 H       
  51 H51            3.3014     7.5645     1.6777 H       
  52 H52            1.8531     7.3581     4.0935 H       
  53 H53            3.5746     7.0738     4.4455 H       
  54 H54            3.0558     8.6191     3.7305 H       
  55 H55            3.4150     3.1483    -0.9828 H       
  56 H56            4.6989     3.0682    -2.2131 H       
  57 H57            5.1073     2.9035    -0.4885 H       
  58 H58            3.7180     6.6978    -1.8840 H       
  59 H59            3.6851     5.3071    -2.9945 H       
  60 H60            2.5899     5.3522    -1.5921 H       
  61 H61            6.7905     4.7869    -1.0086 H       
  62 H62            6.1382     4.9770    -2.6537 H       
  63 H63            6.1710     6.3676    -1.5432 H       
@<TRIPOS>BOND
   1    1    2 1
   2    1    3 2
   3    1   18 1
   4    2   14 1
   5    2    5 1
   6    3    4 1
   7    3    7 1
   8    4    5 2
   9    5    6 1
  10    6   20 ar
  11    6   19 ar
  12    7    8 2
  13    7   10 am
  14    9   10 1
  15    9   11 1
  16    9   12 1
  17    9   33 1
  18   10   34 1
  19   11   27 1
  20   11   35 1
  21   11   36 1
  22   12   13 2
  23   12   25 am
  24   14   15 1
  25   14   37 1
  26   14   38 1
  27   15   16 1
  28   15   39 1
  29   15   40 1
  30   16   17 1
  31   16   41 1
  32   16   42 1
  33   17   18 1
  34   17   24 1
  35   18   43 1
  36   18   44 1
  37   19   23 ar
  38   19   45 1
  39   20   21 ar
  40   20   46 1
  41   21   22 ar
  42   21   47 1
  43   22   23 ar
  44   22   32 1
  45   23   31 1
  46   24   48 1
  47   24   49 1
  48   24   50 1
  49   25   26 1
  50   25   51 1
  51   26   52 1
  52   26   53 1
  53   26   54 1
  54   27   29 1
  55   27   30 1
  56   27   28 1
  57   28   55 1
  58   28   56 1
  59   28   57 1
  60   29   58 1
  61   29   59 1
  62   29   60 1
  63   30   61 1
  64   30   62 1
  65   30   63 1

#	End of record

