#	Name: ASD01940077
#	Creating user name:	WinNT
#	Creation time:	15. 06. 2019 20:11

#	Modifying user name:	WinNT
#	Modification time:	15. 06. 2019 20:11

#	Program:	/corina/corina34_cracker 3.40 0067  02.08.2006

@<TRIPOS>MOLECULE
ASD01940077
  32   33    0    0    0
SMALL
NO_CHARGES


@<TRIPOS>ATOM
   1 Br1            2.7295    -4.1127    -2.3655 Br      
   2 F2             1.8544     1.4509     2.1337 F       
   3 C3             1.0169     2.0882     1.2867 C.ar    
   4 C4             1.3435     2.2033    -0.0580 C.ar    
   5 C5             0.4761     2.8618    -0.9281 C.ar    
   6 C6            -0.7087     3.3988    -0.4472 C.ar    
   7 C7            -1.0287     3.2812     0.8928 C.ar    
   8 C8            -0.1717     2.6226     1.7580 C.ar    
   9 N9             2.5424     1.6592    -0.5390 N.pl3   
  10 N10            0.8009     2.9813    -2.2860 N.am    
  11 C11            2.5859     0.3273    -0.9605 C.ar    
  12 C12            1.4313    -0.4442    -0.9492 C.ar    
  13 C13            1.4772    -1.7603    -1.3667 C.ar    
  14 C14            2.6717    -2.3105    -1.7955 C.ar    
  15 C15            3.8247    -1.5451    -1.8078 C.ar    
  16 C16            3.7843    -0.2265    -1.3974 C.ar    
  17 Cl17           5.2307     0.7334    -1.4130 Cl      
  18 F18           -0.4920     2.5057     3.0652 F       
  19 S19            0.3864     4.3513    -3.1190 S.o2    
  20 O20            0.9475     4.1594    -4.4103 O.2     
  21 O21           -1.0191     4.4588    -2.9395 O.2     
  22 C22            1.2441     5.6895    -2.2447 C.3     
  23 F23            2.6233     5.4572    -2.2746 F       
  24 F24            0.9630     6.9095    -2.8689 F       
  25 F25            0.8073     5.7337    -0.9164 F       
  26 H26           -1.3817     3.9097    -1.1198 H       
  27 H27           -1.9520     3.7003     1.2648 H       
  28 H28            3.3419     2.2071    -0.5795 H       
  29 H29            1.2684     2.2617    -2.7380 H       
  30 H30            0.4983    -0.0158    -0.6139 H       
  31 H31            0.5793    -2.3604    -1.3580 H       
  32 H32            4.7559    -1.9776    -2.1428 H       
@<TRIPOS>BOND
   1    1   14 1
   2    2    3 1
   3    3    4 ar
   4    3    8 ar
   5    4    5 ar
   6    4    9 1
   7    5    6 ar
   8    5   10 1
   9    6    7 ar
  10    6   26 1
  11    7    8 ar
  12    7   27 1
  13    8   18 1
  14    9   11 1
  15    9   28 1
  16   10   19 am
  17   10   29 1
  18   11   12 ar
  19   11   16 ar
  20   12   13 ar
  21   12   30 1
  22   13   14 ar
  23   13   31 1
  24   14   15 ar
  25   15   16 ar
  26   15   32 1
  27   16   17 1
  28   19   20 2
  29   19   21 2
  30   19   22 1
  31   22   23 1
  32   22   24 1
  33   22   25 1

#	End of record

