#	Name: ASD03320117
#	Creating user name:	WinNT
#	Creation time:	15. 06. 2019 20:36

#	Modifying user name:	WinNT
#	Modification time:	15. 06. 2019 20:36

#	Program:	/corina/corina34_cracker 3.40 0067  02.08.2006

@<TRIPOS>MOLECULE
ASD03320117
  50   53    0    0    0
SMALL
NO_CHARGES


@<TRIPOS>ATOM
   1 C1            -0.0181     1.4706     0.0148 C.2     
   2 C2             0.0015    -0.0045     0.0117 C.ar    
   3 C3             1.2194    -0.6863     0.0012 C.ar    
   4 C4             1.2325    -2.0758    -0.0016 C.ar    
   5 C5             0.0203    -2.7849     0.0060 C.ar    
   6 C6            -1.1871    -2.0970     0.0160 C.ar    
   7 C7            -1.2002    -0.7198     0.0251 C.ar    
   8 O8             1.0269     2.0926     0.0081 O.2     
   9 N9            -1.1941     2.1290     0.0193 N.am    
  10 C10           -1.2149     3.5246     0.1327 C.ar    
  11 C11           -2.1832     4.2616    -0.5363 C.ar    
  12 C12           -2.2033     5.6377    -0.4236 C.ar    
  13 C13           -1.2562     6.2840     0.3573 C.ar    
  14 C14           -0.2883     5.5485     1.0255 C.ar    
  15 C15           -0.2707     4.1718     0.9187 C.ar    
  16 O16           -1.2764     7.6391     0.4674 O.3     
  17 C17           -0.2715     8.2383     1.2878 C.3     
  18 Cl18          -0.4862    10.0285     1.2901 Cl      
  19 F19           -0.3864     7.7532     2.5950 F       
  20 F20            0.9937     7.9211     0.7822 F       
  21 C21            2.9914    -3.6147    -1.0230 C.2     
  22 C22            4.2384    -4.1021    -0.6264 C.2     
  23 N23            4.5186    -3.6219     0.5585 N.2     
  24 N24            3.4611    -2.8036     0.9745 N.pl3   
  25 C25            2.5187    -2.8055    -0.0132 C.2     
  26 N26            0.0282    -4.1740     0.0032 N.3     
  27 C27           -0.6481    -4.7087     1.1993 C.3     
  28 C28           -1.7825    -5.6326     0.7085 C.3     
  29 C29           -1.3260    -6.0160    -0.7238 C.3     
  30 C30           -0.6503    -4.7052    -1.1981 C.3     
  31 O31           -1.8815    -6.7940     1.5351 O.3     
  32 F32            2.3643    -3.8834    -2.1891 F       
  33 H33            2.1485    -0.1358    -0.0050 H       
  34 H34           -2.1183    -2.6441     0.0212 H       
  35 H35           -2.1416    -0.1906     0.0377 H       
  36 H36           -2.0262     1.6361    -0.0560 H       
  37 H37           -2.9202     3.7587    -1.1448 H       
  38 H38           -2.9564     6.2110    -0.9438 H       
  39 H39            0.4492     6.0523     1.6326 H       
  40 H40            0.4800     3.5990     1.4428 H       
  41 H41            4.8671    -4.7655    -1.2017 H       
  42 H42            3.4074    -2.3220     1.8148 H       
  43 H43            0.0595    -5.2782     1.8019 H       
  44 H44           -1.0643    -3.8904     1.7869 H       
  45 H45           -2.7311    -5.0965     0.6801 H       
  46 H46           -0.6100    -6.8374    -0.6986 H       
  47 H47           -2.1809    -6.2643    -1.3527 H       
  48 H48           -1.4003    -3.9989    -1.5539 H       
  49 H49            0.0766    -4.9154    -1.9827 H       
  50 H50           -2.5799    -7.4077     1.2691 H       
@<TRIPOS>BOND
   1    1    2 1
   2    1    8 2
   3    1    9 am
   4    2    3 ar
   5    2    7 ar
   6    3    4 ar
   7    3   33 1
   8    4    5 ar
   9    4   25 1
  10    5    6 ar
  11    5   26 1
  12    6    7 ar
  13    6   34 1
  14    7   35 1
  15    9   10 1
  16    9   36 1
  17   10   11 ar
  18   10   15 ar
  19   11   12 ar
  20   11   37 1
  21   12   13 ar
  22   12   38 1
  23   13   14 ar
  24   13   16 1
  25   14   15 ar
  26   14   39 1
  27   15   40 1
  28   16   17 1
  29   17   18 1
  30   17   19 1
  31   17   20 1
  32   21   22 1
  33   21   25 2
  34   21   32 1
  35   22   23 2
  36   22   41 1
  37   23   24 1
  38   24   25 1
  39   24   42 1
  40   26   27 1
  41   26   30 1
  42   27   28 1
  43   27   43 1
  44   27   44 1
  45   28   29 1
  46   28   31 1
  47   28   45 1
  48   29   30 1
  49   29   46 1
  50   29   47 1
  51   30   48 1
  52   30   49 1
  53   31   50 1

#	End of record

