#	Name: ASD01811911
#	Creating user name:	WinNT
#	Creation time:	15. 06. 2019 19:27

#	Modifying user name:	WinNT
#	Modification time:	15. 06. 2019 19:27

#	Program:	/corina/corina34_cracker 3.40 0067  02.08.2006

@<TRIPOS>MOLECULE
ASD01811911
  41   43    0    0    0
SMALL
NO_CHARGES


@<TRIPOS>ATOM
   1 C1            -0.0166     1.3751     0.0096 C.ar    
   2 C2             0.0021    -0.0041     0.0020 C.ar    
   3 C3             1.2068    -0.6866    -0.0127 C.ar    
   4 C4             2.4015     0.0058    -0.0199 C.ar    
   5 C5             2.4005     1.3940    -0.0124 C.ar    
   6 C6             1.1822     2.0874     0.0020 C.ar    
   7 C7             1.1684     3.5670     0.0096 C.2     
   8 C8             0.8633     4.2640     1.1703 C.2     
   9 C9             0.8600     5.6644     1.1416 C.2     
  10 N10            1.1493     6.3184     0.0016 N.am    
  11 C11            1.4489     5.6442    -1.1401 C.2     
  12 C12            1.4715     4.2949    -1.1641 C.2     
  13 C13            1.1409     7.7833    -0.0092 C.3     
  14 C14            0.1088     8.2799    -1.0236 C.3     
  15 C15            0.1000     9.8098    -1.0349 C.3     
  16 C16            1.4870    10.3249    -1.4247 C.3     
  17 C17            2.5191     9.8284    -0.4103 C.3     
  18 C18            2.5279     8.2984    -0.3990 C.3     
  19 N19            3.6036     2.0942    -0.0192 N.pl3   
  20 O20            0.5934     6.2936     2.1536 O.2     
  21 O21           -1.1866     7.7988    -0.6596 O.3     
  22 H22           -0.9589     1.9028     0.0169 H       
  23 H23           -0.9273    -0.5542     0.0079 H       
  24 H24            1.2120    -1.7666    -0.0182 H       
  25 H25            3.3374    -0.5330    -0.0310 H       
  26 H26            0.6314     3.7343     2.0825 H       
  27 H27            1.6766     6.1963    -2.0400 H       
  28 H28            1.7161     3.7731    -2.0774 H       
  29 H29            0.8819     8.1525     0.9831 H       
  30 H30            0.3679     7.9107    -2.0159 H       
  31 H31           -0.6353    10.1636    -1.7576 H       
  32 H32           -0.1590    10.1790    -0.0426 H       
  33 H33            1.7460     9.9557    -2.4170 H       
  34 H34            1.4807    11.4149    -1.4328 H       
  35 H35            3.5072    10.1953    -0.6880 H       
  36 H36            2.2600    10.1976     0.5820 H       
  37 H37            3.2632     7.9447     0.3237 H       
  38 H38            2.7869     7.9292    -1.3913 H       
  39 H39            4.4452     1.6121    -0.0292 H       
  40 H40            3.6002     3.0641    -0.0140 H       
  41 H41           -1.8921     8.0757    -1.2602 H       
@<TRIPOS>BOND
   1    1    2 ar
   2    1    6 ar
   3    1   22 1
   4    2    3 ar
   5    2   23 1
   6    3    4 ar
   7    3   24 1
   8    4    5 ar
   9    4   25 1
  10    5    6 ar
  11    5   19 1
  12    6    7 1
  13    7    8 2
  14    7   12 1
  15    8    9 1
  16    8   26 1
  17    9   10 am
  18    9   20 2
  19   10   11 1
  20   10   13 1
  21   11   12 2
  22   11   27 1
  23   12   28 1
  24   13   14 1
  25   13   18 1
  26   13   29 1
  27   14   15 1
  28   14   21 1
  29   14   30 1
  30   15   16 1
  31   15   31 1
  32   15   32 1
  33   16   17 1
  34   16   33 1
  35   16   34 1
  36   17   18 1
  37   17   35 1
  38   17   36 1
  39   18   37 1
  40   18   38 1
  41   19   39 1
  42   19   40 1
  43   21   41 1

#	End of record

