#	Name: ASD04880114
#	Creating user name:	WinNT
#	Creation time:	15. 06. 2019 20:52

#	Modifying user name:	WinNT
#	Modification time:	15. 06. 2019 20:52

#	Program:	/corina/corina34_cracker 3.40 0067  02.08.2006

@<TRIPOS>MOLECULE
ASD04880114
  52   55    0    0    0
SMALL
NO_CHARGES


@<TRIPOS>ATOM
   1 N1            -0.0168     1.3439     0.0585 N.am    
   2 C2            -0.0009     0.0017     0.0036 C.2     
   3 C3             1.4504    -0.4252    -0.0546 C.3     
   4 C4             2.2162     0.8779    -0.0234 C.ar    
   5 C5             3.5566     1.1713    -0.0493 C.ar    
   6 C6             3.9771     2.5047    -0.0071 C.ar    
   7 C7             3.0244     3.5254     0.0611 C.ar    
   8 C8             1.6842     3.2206     0.0870 C.ar    
   9 C9             1.2626     1.8896     0.0445 C.ar    
  10 O10           -0.9677    -0.7306     0.0016 O.2     
  11 C11            5.4157     2.8315    -0.0339 C.2     
  12 O12            6.2427     1.9421     0.0330 O.2     
  13 N13            5.8134     4.1154    -0.1326 N.am    
  14 N14            4.9747     5.2109    -0.3274 N.2     
  15 C15            5.5907     6.3410    -0.3892 C.2     
  16 C16            7.0769     6.1157    -0.2257 C.3     
  17 C17            7.2036     4.5900    -0.0457 C.3     
  18 C18            7.8305     6.5785    -1.4743 C.3     
  19 C19            7.5964     6.8423     1.0165 C.3     
  20 C20            4.9460     7.6515    -0.5891 C.ar    
  21 C21            3.5578     7.7354    -0.7284 C.ar    
  22 C22            2.9585     8.9665    -0.9151 C.ar    
  23 C23            3.7379    10.1207    -0.9645 C.ar    
  24 C24            5.1155    10.0380    -0.8264 C.ar    
  25 C25            5.7203     8.8133    -0.6340 C.ar    
  26 O26            3.1465    11.3307    -1.1491 O.3     
  27 C27            4.0046    12.4727    -1.1899 C.3     
  28 O28            1.6081     9.0517    -1.0509 O.3     
  29 C29            0.8715     7.8286    -0.9906 C.3     
  30 H30           -0.8289     1.8728     0.0990 H       
  31 H31            1.7035    -1.0380     0.8106 H       
  32 H32            1.6531    -0.9655    -0.9793 H       
  33 H33            4.2845     0.3752    -0.1017 H       
  34 H34            3.3424     4.5570     0.0940 H       
  35 H35            0.9536     4.0142     0.1401 H       
  36 H36            7.6304     4.3508     0.9283 H       
  37 H37            7.8063     4.1600    -0.8457 H       
  38 H38            7.6703     7.6467    -1.6203 H       
  39 H39            8.8957     6.3847    -1.3484 H       
  40 H40            7.4623     6.0337    -2.3436 H       
  41 H41            7.0638     6.4830     1.8970 H       
  42 H42            8.6626     6.6475     1.1321 H       
  43 H43            7.4329     7.9143     0.9053 H       
  44 H44            2.9549     6.8401    -0.6906 H       
  45 H45            5.7157    10.9350    -0.8657 H       
  46 H46            6.7928     8.7522    -0.5226 H       
  47 H47            4.5478    12.5528    -0.2483 H       
  48 H48            4.7139    12.3651    -2.0106 H       
  49 H49            3.4066    13.3712    -1.3420 H       
  50 H50           -0.1912     8.0381    -1.1126 H       
  51 H51            1.2047     7.1641    -1.7878 H       
  52 H52            1.0392     7.3508    -0.0254 H       
@<TRIPOS>BOND
   1    1    2 am
   2    1    9 1
   3    1   30 1
   4    2    3 1
   5    2   10 2
   6    3    4 1
   7    3   31 1
   8    3   32 1
   9    4    5 ar
  10    4    9 ar
  11    5    6 ar
  12    5   33 1
  13    6    7 ar
  14    6   11 1
  15    7    8 ar
  16    7   34 1
  17    8    9 ar
  18    8   35 1
  19   11   12 2
  20   11   13 am
  21   13   14 1
  22   13   17 1
  23   14   15 2
  24   15   16 1
  25   15   20 1
  26   16   17 1
  27   16   18 1
  28   16   19 1
  29   17   36 1
  30   17   37 1
  31   18   38 1
  32   18   39 1
  33   18   40 1
  34   19   41 1
  35   19   42 1
  36   19   43 1
  37   20   21 ar
  38   20   25 ar
  39   21   22 ar
  40   21   44 1
  41   22   23 ar
  42   22   28 1
  43   23   24 ar
  44   23   26 1
  45   24   25 ar
  46   24   45 1
  47   25   46 1
  48   26   27 1
  49   27   47 1
  50   27   48 1
  51   27   49 1
  52   28   29 1
  53   29   50 1
  54   29   51 1
  55   29   52 1

#	End of record

