#	Name: ASD00192052
#	Creating user name:	WinNT
#	Creation time:	15. 06. 2019 18:33

#	Modifying user name:	WinNT
#	Modification time:	15. 06. 2019 18:33

#	Program:	/corina/corina34_cracker 3.40 0067  02.08.2006

@<TRIPOS>MOLECULE
ASD00192052
  36   39    0    0    0
SMALL
NO_CHARGES


@<TRIPOS>ATOM
   1 N1            -0.0157     1.3051     0.0092 N.ar    
   2 C2             0.0021    -0.0041     0.0020 C.ar    
   3 C3             1.2139    -0.7190    -0.0129 C.ar    
   4 C4             2.4222    -0.0119    -0.0207 C.ar    
   5 C5             2.3735     1.3990    -0.0131 C.ar    
   6 C6             3.5399     2.1736    -0.0197 C.ar    
   7 C7             3.4483     3.5342    -0.0115 C.ar    
   8 C8             2.2076     4.1632     0.0037 C.ar    
   9 C9             1.0537     3.4384     0.0104 C.ar    
  10 C10            1.1089     2.0360     0.0024 C.ar    
  11 C11            2.8243    -2.1743    -0.0347 C.2     
  12 N12            1.5296    -2.0373    -0.0221 N.2     
  13 N13            3.4188    -0.9503    -0.0343 N.pl3   
  14 C14            3.5555    -3.4920    -0.0469 C.3     
  15 C15            3.9002    -3.8707    -1.4887 C.3     
  16 C16            4.6425    -5.2084    -1.5011 C.3     
  17 C17            5.9305    -5.0845    -0.6846 C.3     
  18 C18            5.5859    -4.7059     0.7572 C.3     
  19 C19            4.8435    -3.3681     0.7696 C.3     
  20 Cl20          -1.4995    -0.8752     0.0117 Cl      
  21 H21            4.5083     1.6955    -0.0308 H       
  22 H22            4.3491     4.1300    -0.0166 H       
  23 H23            2.1582     5.2421     0.0107 H       
  24 H24            0.0985     3.9422     0.0226 H       
  25 H25            4.3728    -0.7750    -0.0427 H       
  26 H26            2.9213    -4.2635     0.3897 H       
  27 H27            2.9826    -3.9589    -2.0704 H       
  28 H28            4.5343    -3.0991    -1.9253 H       
  29 H29            4.0083    -5.9800    -1.0645 H       
  30 H30            4.8880    -5.4782    -2.5282 H       
  31 H31            6.4594    -6.0376    -0.6934 H       
  32 H32            6.5647    -4.3130    -1.1212 H       
  33 H33            4.9517    -5.4774     1.1938 H       
  34 H34            6.5034    -4.6176     1.3389 H       
  35 H35            5.4777    -2.5966     0.3330 H       
  36 H36            4.5980    -3.0983     1.7968 H       
@<TRIPOS>BOND
   1    1    2 ar
   2    1   10 ar
   3    2    3 ar
   4    2   20 1
   5    3    4 ar
   6    3   12 1
   7    4    5 ar
   8    4   13 1
   9    5    6 ar
  10    5   10 ar
  11    6    7 ar
  12    6   21 1
  13    7    8 ar
  14    7   22 1
  15    8    9 ar
  16    8   23 1
  17    9   10 ar
  18    9   24 1
  19   11   12 2
  20   11   13 1
  21   11   14 1
  22   13   25 1
  23   14   15 1
  24   14   19 1
  25   14   26 1
  26   15   16 1
  27   15   27 1
  28   15   28 1
  29   16   17 1
  30   16   29 1
  31   16   30 1
  32   17   18 1
  33   17   31 1
  34   17   32 1
  35   18   19 1
  36   18   33 1
  37   18   34 1
  38   19   35 1
  39   19   36 1

#	End of record

