#	Name: ASD01813804
#	Creating user name:	WinNT
#	Creation time:	15. 06. 2019 19:31

#	Modifying user name:	WinNT
#	Modification time:	15. 06. 2019 19:31

#	Program:	/corina/corina34_cracker 3.40 0067  02.08.2006

@<TRIPOS>MOLECULE
ASD01813804
  46   48    0    0    0
SMALL
NO_CHARGES


@<TRIPOS>ATOM
   1 C1             0.3615     1.4574     1.1500 C.2     
   2 C2             0.3721     0.0561     1.1638 C.2     
   3 C3             1.5294    -0.6094     0.8830 C.2     
   4 C4             2.6914     0.1215     0.5846 C.2     
   5 N5             2.6525     1.4894     0.5786 N.am    
   6 C6             1.4900     2.1437     0.8604 C.2     
   7 C7             3.8820    -0.5601     0.2958 C.2     
   8 C8             5.0165     0.1405     0.0050 C.2     
   9 C9             4.9727     1.5470    -0.0008 C.2     
  10 C10            3.7603     2.2034     0.2942 C.2     
  11 O11            3.7132     3.4219     0.2910 O.2     
  12 C12            6.1764     2.3223    -0.3092 C.2     
  13 O13            6.1278     3.6704    -0.3131 O.3     
  14 O14            7.2199     1.7505    -0.5618 O.2     
  15 C15            3.9091    -2.0668     0.3069 C.3     
  16 N16            3.7012    -2.5703    -1.0573 N.3     
  17 C17            3.9552    -4.0154    -1.1295 C.3     
  18 C18            3.5884    -4.5338    -2.4913 C.2     
  19 N19            2.8096    -3.8531    -3.3388 N.am    
  20 C20            2.2728    -2.5297    -3.0349 C.3     
  21 C21            2.3395    -2.2702    -1.5286 C.3     
  22 O22            4.0169    -5.6146    -2.8364 O.2     
  23 C23            5.4383    -4.2841    -0.8664 C.3     
  24 C24            5.6770    -5.7933    -0.7875 C.3     
  25 C25            6.2732    -3.6945    -2.0048 C.3     
  26 H26           -0.5521     1.9908     1.3669 H       
  27 H27           -0.5288    -0.4927     1.3954 H       
  28 H28            1.5522    -1.6892     0.8904 H       
  29 H29            1.4704     3.2235     0.8529 H       
  30 H30            5.9371    -0.3785    -0.2177 H       
  31 H31            6.9475     4.1386    -0.5224 H       
  32 H32            4.8749    -2.4100     0.6777 H       
  33 H33            3.1172    -2.4396     0.9565 H       
  34 H34            3.3571    -4.5261    -0.3748 H       
  35 H35            2.5918    -4.2564    -4.1937 H       
  36 H36            2.8576    -1.7734    -3.5584 H       
  37 H37            1.2357    -2.4755    -3.3657 H       
  38 H38            1.6246    -2.9129    -1.0149 H       
  39 H39            2.1051    -1.2249    -1.3271 H       
  40 H40            5.7299    -3.8204     0.0760 H       
  41 H41            5.5362    -6.2355    -1.7738 H       
  42 H42            6.6947    -5.9829    -0.4462 H       
  43 H43            4.9701    -6.2368    -0.0863 H       
  44 H44            6.1032    -2.6193    -2.0610 H       
  45 H45            7.3298    -3.8860    -1.8173 H       
  46 H46            5.9816    -4.1583    -2.9472 H       
@<TRIPOS>BOND
   1    1    2 1
   2    1    6 2
   3    1   26 1
   4    2    3 2
   5    2   27 1
   6    3    4 1
   7    3   28 1
   8    4    5 1
   9    4    7 2
  10    5    6 1
  11    5   10 am
  12    6   29 1
  13    7    8 1
  14    7   15 1
  15    8    9 2
  16    8   30 1
  17    9   10 1
  18    9   12 1
  19   10   11 2
  20   12   13 1
  21   12   14 2
  22   13   31 1
  23   15   16 1
  24   15   32 1
  25   15   33 1
  26   16   17 1
  27   16   21 1
  28   17   18 1
  29   17   23 1
  30   17   34 1
  31   18   19 am
  32   18   22 2
  33   19   20 1
  34   19   35 1
  35   20   21 1
  36   20   36 1
  37   20   37 1
  38   21   38 1
  39   21   39 1
  40   23   24 1
  41   23   25 1
  42   23   40 1
  43   24   41 1
  44   24   42 1
  45   24   43 1
  46   25   44 1
  47   25   45 1
  48   25   46 1

#	End of record

