#	Name: ASD01948268
#	Creating user name:	WinNT
#	Creation time:	15. 06. 2019 20:14

#	Modifying user name:	WinNT
#	Modification time:	15. 06. 2019 20:14

#	Program:	/corina/corina34_cracker 3.40 0067  02.08.2006

@<TRIPOS>MOLECULE
ASD01948268
  42   45    0    0    0
SMALL
NO_CHARGES


@<TRIPOS>ATOM
   1 C1             0.2923     1.3883     0.0988 C.ar    
   2 C2            -0.2708     1.6725    -1.1330 C.ar    
   3 C3             0.4507     2.3742    -2.0815 C.ar    
   4 C4             1.7372     2.7943    -1.8027 C.ar    
   5 C5             2.3065     2.5117    -0.5684 C.ar    
   6 C6             1.5788     1.8054     0.3845 C.ar    
   7 C7             4.4772     0.7063    -0.6460 C.ar    
   8 C8             4.6360     1.9927    -0.1343 C.ar    
   9 N9             3.6081     2.9356    -0.2836 N.pl3   
  10 C10            5.4817    -0.2289    -0.5048 C.ar    
  11 C11            6.6660     0.1152     0.1551 C.ar    
  12 C12            6.8265     1.4090     0.6706 C.ar    
  13 C13            5.8084     2.3452     0.5236 C.ar    
  14 N14            5.9648     3.6419     1.0376 N.am    
  15 I15           -2.2206     1.0377    -1.5622 I       
  16 F16            5.3216    -1.4745    -1.0026 F       
  17 F17            2.1285     1.5285     1.5871 F       
  18 F18            3.3314     0.3714    -1.2786 F       
  19 O19            8.0521     1.4395     1.2415 O.3     
  20 C20            8.6157     0.2306     1.0862 C.2     
  21 N21            7.8101    -0.5627     0.4472 N.2     
  22 S22            7.3524     4.0515     1.8433 S.o2    
  23 O23            7.0991     5.3607     2.3343 O.2     
  24 O24            7.5748     2.9658     2.7326 O.2     
  25 C25            8.6289     4.0908     0.5550 C.3     
  26 C26           10.0364     4.5258     0.9681 C.3     
  27 C27            9.7539     3.0576     0.6434 C.3     
  28 C28            8.1463     4.4927    -0.8402 C.3     
  29 O29            6.8208     4.0001    -1.0459 O.3     
  30 H30           -0.2754     0.8440     0.8390 H       
  31 H31            0.0080     2.5938    -3.0418 H       
  32 H32            2.2995     3.3419    -2.5445 H       
  33 H33            3.8003     3.8816    -0.1891 H       
  34 H34            5.2600     4.2981     0.9210 H       
  35 H35            9.5981    -0.0429     1.4417 H       
  36 H36           10.6187     5.0980     0.2458 H       
  37 H37           10.1954     4.7884     2.0140 H       
  38 H38            9.7270     2.3543     1.4757 H       
  39 H39           10.1503     2.6639    -0.2925 H       
  40 H40            8.1474     5.5794    -0.9260 H       
  41 H41            8.8124     4.0683    -1.5913 H       
  42 H42            6.4501     4.2183    -1.9120 H       
@<TRIPOS>BOND
   1    1    2 ar
   2    1    6 ar
   3    1   30 1
   4    2    3 ar
   5    2   15 1
   6    3    4 ar
   7    3   31 1
   8    4    5 ar
   9    4   32 1
  10    5    6 ar
  11    5    9 1
  12    6   17 1
  13    7    8 ar
  14    7   10 ar
  15    7   18 1
  16    8    9 1
  17    8   13 ar
  18    9   33 1
  19   10   11 ar
  20   10   16 1
  21   11   12 ar
  22   11   21 1
  23   12   13 ar
  24   12   19 1
  25   13   14 1
  26   14   22 am
  27   14   34 1
  28   19   20 1
  29   20   21 2
  30   20   35 1
  31   22   23 2
  32   22   24 2
  33   22   25 1
  34   25   26 1
  35   25   28 1
  36   25   27 1
  37   26   27 1
  38   26   36 1
  39   26   37 1
  40   27   38 1
  41   27   39 1
  42   28   29 1
  43   28   40 1
  44   28   41 1
  45   29   42 1

#	End of record

