#	Name: ASD01882036
#	Creating user name:	WinNT
#	Creation time:	15. 06. 2019 19:43

#	Modifying user name:	WinNT
#	Modification time:	15. 06. 2019 19:43

#	Program:	/corina/corina34_cracker 3.40 0067  02.08.2006

@<TRIPOS>MOLECULE
ASD01882036
  37   39    0    0    0
SMALL
NO_CHARGES


@<TRIPOS>ATOM
   1 C1            -0.0136     1.3973     0.0607 C.2     
   2 C2            -0.0040     0.0034    -0.1390 C.2     
   3 C3            -1.1849    -0.6708    -0.1733 C.2     
   4 C4            -2.3926     0.0293    -0.0097 C.2     
   5 C5            -2.3863     1.3653     0.1805 C.2     
   6 N6            -1.2100     2.0548     0.2110 N.pl3   
   7 C7            -1.1982    -2.1626    -0.3863 C.3     
   8 O8            -1.9606    -2.7849     0.6497 O.3     
   9 C9             1.2994    -0.7327    -0.3133 C.3     
  10 C10           -1.6010    -4.0472     1.0081 C.ar    
  11 C11           -1.8294    -2.4782    -1.7438 C.3     
  12 N12            0.9391     2.3119     0.1413 N.2     
  13 N13            0.4087     3.4683     0.3346 N.2     
  14 C14           -0.8945     3.3671     0.3838 C.2     
  15 C15           -1.8688     4.4979     0.5914 C.3     
  16 F16            1.1943    -1.6183    -1.3912 F       
  17 F17            2.3242     0.1863    -0.5630 F       
  18 F18            1.5896    -1.4495     0.8525 F       
  19 C19           -0.6649    -4.2440     2.0140 C.ar    
  20 C20           -0.3004    -5.5286     2.3770 C.ar    
  21 C21           -0.8688    -6.6171     1.7377 C.ar    
  22 C22           -1.8023    -6.4229     0.7340 C.ar    
  23 C23           -2.1740    -5.1400     0.3723 C.ar    
  24 F24           -3.0894    -4.9512    -0.6032 F       
  25 F25           -0.5116    -7.8705     2.0935 F       
  26 F26           -0.1096    -3.1820     2.6379 F       
  27 H27           -3.3308    -0.5049    -0.0367 H       
  28 H28           -3.3202     1.8933     0.3047 H       
  29 H29           -0.1766    -2.5420    -0.3636 H       
  30 H30           -1.8390    -3.5573    -1.8979 H       
  31 H31           -2.8510    -2.0988    -1.7666 H       
  32 H32           -1.2478    -2.0036    -2.5341 H       
  33 H33           -2.0559     4.6252     1.6576 H       
  34 H34           -1.4500     5.4179     0.1836 H       
  35 H35           -2.8054     4.2685     0.0831 H       
  36 H36            0.4282    -5.6821     3.1593 H       
  37 H37           -2.2442    -7.2734     0.2362 H       
@<TRIPOS>BOND
   1    1    2 1
   2    1   12 2
   3    1    6 1
   4    2    9 1
   5    2    3 2
   6    3    4 1
   7    3    7 1
   8    4    5 2
   9    4   27 1
  10    5    6 1
  11    5   28 1
  12    6   14 1
  13    7    8 1
  14    7   11 1
  15    7   29 1
  16    8   10 1
  17    9   16 1
  18    9   17 1
  19    9   18 1
  20   10   19 ar
  21   10   23 ar
  22   11   30 1
  23   11   31 1
  24   11   32 1
  25   12   13 1
  26   13   14 2
  27   14   15 1
  28   15   33 1
  29   15   34 1
  30   15   35 1
  31   19   20 ar
  32   19   26 1
  33   20   21 ar
  34   20   36 1
  35   21   22 ar
  36   21   25 1
  37   22   23 ar
  38   22   37 1
  39   23   24 1

#	End of record

