#	Name: ASD05140006
#	Creating user name:	WinNT
#	Creation time:	15. 06. 2019 20:57

#	Modifying user name:	WinNT
#	Modification time:	15. 06. 2019 20:57

#	Program:	/corina/corina34_cracker 3.40 0067  02.08.2006

@<TRIPOS>MOLECULE
ASD05140006
  51   54    0    0    0
SMALL
NO_CHARGES


@<TRIPOS>ATOM
   1 C1            -0.0164     1.3584     0.0095 C.ar    
   2 C2             0.0021    -0.0041     0.0020 C.ar    
   3 C3             1.2063    -0.7049    -0.0128 C.ar    
   4 C4             2.4008    -0.0502    -0.0206 C.ar    
   5 C5             2.4220     1.3529    -0.0137 C.ar    
   6 C6             1.1943     2.0657     0.0017 C.ar    
   7 N7             3.5671     2.0435    -0.0205 N.ar    
   8 C8             3.5467     3.3637    -0.0132 C.ar    
   9 N9             2.4125     4.0646     0.0008 N.ar    
  10 C10            1.2373     3.4726     0.0084 C.ar    
  11 C11            4.8351     4.0951    -0.0205 C.ar    
  12 C12            6.0381     3.3900    -0.0348 C.ar    
  13 C13            7.2404     4.0747    -0.0421 C.ar    
  14 C14            7.2496     5.4660    -0.0352 C.ar    
  15 C15            6.0502     6.1711    -0.0210 C.ar    
  16 C16            4.8461     5.4897    -0.0190 C.ar    
  17 C17           -0.0336     4.2824     0.0242 C.3     
  18 C18           -0.4503     4.5492     1.4720 C.3     
  19 C19           -1.7211     5.3590     1.4879 C.2     
  20 O20           -1.7981     6.6998     1.4894 O.3     
  21 C21           -3.0877     7.0743     1.5048 C.2     
  22 C22           -3.8517     5.9672     1.5133 C.2     
  23 C23           -2.9708     4.8615     1.4970 C.2     
  24 O24            8.4138     3.3873    -0.0555 O.3     
  25 C25            8.3301     1.9608    -0.0615 C.3     
  26 O26            8.4322     6.1374    -0.0419 O.3     
  27 C27            8.9855     6.4641    -1.3183 C.3     
  28 O28            6.0615     7.5311    -0.0138 O.3     
  29 C29            4.7937     8.1903     0.0008 C.3     
  30 H30           -0.9567     1.8897     0.0169 H       
  31 H31           -0.9305    -0.5488     0.0080 H       
  32 H32            1.1924    -1.7848    -0.0178 H       
  33 H33            3.3258    -0.6075    -0.0317 H       
  34 H34            6.0314     2.3100    -0.0398 H       
  35 H35            3.9153     6.0374    -0.0124 H       
  36 H36            0.1335     5.2307    -0.4864 H       
  37 H37           -0.8230     3.7296    -0.4851 H       
  38 H38           -0.6173     3.6008     1.9827 H       
  39 H39            0.3392     5.1019     1.9813 H       
  40 H40           -3.4500     8.0917     1.5099 H       
  41 H41           -4.9310     5.9301     1.5263 H       
  42 H42           -3.2481     3.8177     1.4947 H       
  43 H43            7.8037     1.6240     0.8316 H       
  44 H44            7.7881     1.6323    -0.9483 H       
  45 H45            9.3347     1.5379    -0.0722 H       
  46 H46            9.9264     6.9969    -1.1808 H       
  47 H47            9.1654     5.5483    -1.8815 H       
  48 H48            8.2867     7.0962    -1.8662 H       
  49 H49            4.2266     7.9068    -0.8858 H       
  50 H50            4.2421     7.8973     0.8940 H       
  51 H51            4.9455     9.2697     0.0052 H       
@<TRIPOS>BOND
   1    1    2 ar
   2    1    6 ar
   3    1   30 1
   4    2    3 ar
   5    2   31 1
   6    3    4 ar
   7    3   32 1
   8    4    5 ar
   9    4   33 1
  10    5    7 ar
  11    5    6 ar
  12    6   10 ar
  13    7    8 ar
  14    8    9 ar
  15    8   11 1
  16    9   10 ar
  17   10   17 1
  18   11   12 ar
  19   11   16 ar
  20   12   13 ar
  21   12   34 1
  22   13   14 ar
  23   13   24 1
  24   14   15 ar
  25   14   26 1
  26   15   16 ar
  27   15   28 1
  28   16   35 1
  29   17   18 1
  30   17   36 1
  31   17   37 1
  32   18   19 1
  33   18   38 1
  34   18   39 1
  35   19   23 2
  36   19   20 1
  37   20   21 1
  38   21   22 2
  39   21   40 1
  40   22   23 1
  41   22   41 1
  42   23   42 1
  43   24   25 1
  44   25   43 1
  45   25   44 1
  46   25   45 1
  47   26   27 1
  48   27   46 1
  49   27   47 1
  50   27   48 1
  51   28   29 1
  52   29   49 1
  53   29   50 1
  54   29   51 1

#	End of record

