#	Name: ASD04370067
#	Creating user name:	WinNT
#	Creation time:	15. 06. 2019 20:49

#	Modifying user name:	WinNT
#	Modification time:	15. 06. 2019 20:49

#	Program:	/corina/corina34_cracker 3.40 0067  02.08.2006

@<TRIPOS>MOLECULE
ASD04370067
  73   74    0    0    0
SMALL
NO_CHARGES


@<TRIPOS>ATOM
   1 C1            -0.0484     1.3019     0.0645 C.2     
   2 C2             0.0339    -0.2028     0.0668 C.3     
   3 C3             1.4965    -0.6337    -0.0601 C.3     
   4 C4             1.5927    -2.1554     0.0673 C.3     
   5 O5             0.9593     1.9620    -0.0289 O.2     
   6 O6            -1.2418     1.9089     0.1608 O.3     
   7 N7             2.0163    -0.2191    -1.3655 N.am    
   8 C8             3.3296     0.0439    -1.5152 C.2     
   9 C9             3.8469     0.5751    -2.8272 C.3     
  10 C10            5.3592     0.7864    -2.7313 C.3     
  11 C11            5.8844     1.3256    -4.0633 C.3     
  12 C12            7.3967     1.5369    -3.9673 C.3     
  13 C13            7.9218     2.0762    -5.2994 C.3     
  14 C14            9.4342     2.2874    -5.2034 C.3     
  15 C15            9.9593     2.8267    -6.5354 C.3     
  16 C16           11.4716     3.0379    -6.4394 C.3     
  17 C17           11.9968     3.5772    -7.7715 C.3     
  18 O18            4.0952    -0.1469    -0.5941 O.2     
  19 C19           14.3653     2.8325    -7.9914 C.2     
  20 C20           13.4864     3.7853    -7.6769 C.2     
  21 C21           14.0461     4.9798    -7.2577 C.2     
  22 C22           15.3797     4.9971    -7.2316 C.2     
  23 S23           16.0001     3.4379    -7.7585 S.3     
  24 N24            1.1820    -2.5607     1.4182 N.3     
  25 C25            0.8905    -3.9995     1.4703 C.3     
  26 C26            2.2011    -2.1937     2.4105 C.3     
  27 C27           -1.2454     3.3609     0.1523 C.3     
  28 C28           -2.6625     3.8604     0.2680 C.ar    
  29 C29           -3.2125     4.0967     1.5140 C.ar    
  30 C30           -4.5124     4.5548     1.6200 C.ar    
  31 C31           -5.2622     4.7770     0.4801 C.ar    
  32 C32           -4.7118     4.5416    -0.7659 C.ar    
  33 C33           -3.4105     4.0876    -0.8721 C.ar    
  34 H34           -0.3787    -0.5879     0.9992 H       
  35 H35           -0.5358    -0.5991    -0.7737 H       
  36 H36            2.0832    -0.1652     0.7301 H       
  37 H37            0.9377    -2.6236    -0.6674 H       
  38 H38            2.6211    -2.4705    -0.1097 H       
  39 H39            1.4152    -0.1338    -2.1220 H       
  40 H40            3.6296    -0.1407    -3.6200 H       
  41 H41            3.3609     1.5246    -3.0518 H       
  42 H42            5.5765     1.5022    -1.9385 H       
  43 H43            5.8452    -0.1631    -2.5067 H       
  44 H44            5.6671     0.6098    -4.8561 H       
  45 H45            5.3984     2.2751    -4.2878 H       
  46 H46            7.6140     2.2527    -3.1745 H       
  47 H47            7.8827     0.5874    -3.7428 H       
  48 H48            7.7046     1.3604    -6.0921 H       
  49 H49            7.4359     3.0256    -5.5239 H       
  50 H50            9.6514     3.0032    -4.4106 H       
  51 H51            9.9201     1.3379    -4.9788 H       
  52 H52            9.7420     2.1109    -7.3282 H       
  53 H53            9.4733     3.7762    -6.7599 H       
  54 H54           11.6889     3.7537    -5.6466 H       
  55 H55           11.9576     2.0885    -6.2149 H       
  56 H56           11.7795     2.8614    -8.5643 H       
  57 H57           11.5108     4.5267    -7.9960 H       
  58 H58           14.1118     1.8396    -8.3324 H       
  59 H59           13.4485     5.8333    -6.9735 H       
  60 H60           15.9857     5.8398    -6.9332 H       
  61 H61            1.7824    -4.5612     1.1929 H       
  62 H62            0.5889    -4.2727     2.4815 H       
  63 H63            0.0837    -4.2322     0.7752 H       
  64 H64            2.2808    -1.1080     2.4652 H       
  65 H65            1.9160    -2.5867     3.3865 H       
  66 H66            3.1628    -2.6142     2.1163 H       
  67 H67           -0.6600     3.7306     0.9941 H       
  68 H68           -0.8085     3.7199    -0.7796 H       
  69 H69           -2.6268     3.9231     2.4045 H       
  70 H70           -4.9424     4.7388     2.5935 H       
  71 H71           -6.2780     5.1343     0.5630 H       
  72 H72           -5.2977     4.7149    -1.6565 H       
  73 H73           -2.9793     3.9071    -1.8457 H       
@<TRIPOS>BOND
   1    1    2 1
   2    1    5 2
   3    1    6 1
   4    2    3 1
   5    2   34 1
   6    2   35 1
   7    3    4 1
   8    3    7 1
   9    3   36 1
  10    4   24 1
  11    4   37 1
  12    4   38 1
  13    6   27 1
  14    7    8 am
  15    7   39 1
  16    8    9 1
  17    8   18 2
  18    9   10 1
  19    9   40 1
  20    9   41 1
  21   10   11 1
  22   10   42 1
  23   10   43 1
  24   11   12 1
  25   11   44 1
  26   11   45 1
  27   12   13 1
  28   12   46 1
  29   12   47 1
  30   13   14 1
  31   13   48 1
  32   13   49 1
  33   14   15 1
  34   14   50 1
  35   14   51 1
  36   15   16 1
  37   15   52 1
  38   15   53 1
  39   16   17 1
  40   16   54 1
  41   16   55 1
  42   17   20 1
  43   17   56 1
  44   17   57 1
  45   19   20 2
  46   19   23 1
  47   19   58 1
  48   20   21 1
  49   21   22 2
  50   21   59 1
  51   22   23 1
  52   22   60 1
  53   24   25 1
  54   24   26 1
  55   25   61 1
  56   25   62 1
  57   25   63 1
  58   26   64 1
  59   26   65 1
  60   26   66 1
  61   27   28 1
  62   27   67 1
  63   27   68 1
  64   28   29 ar
  65   28   33 ar
  66   29   30 ar
  67   29   69 1
  68   30   31 ar
  69   30   70 1
  70   31   32 ar
  71   31   71 1
  72   32   33 ar
  73   32   72 1
  74   33   73 1

#	End of record

