#	Name: ASD03091346
#	Creating user name:	WinNT
#	Creation time:	15. 06. 2019 20:30

#	Modifying user name:	WinNT
#	Modification time:	15. 06. 2019 20:30

#	Program:	/corina/corina34_cracker 3.40 0067  02.08.2006

@<TRIPOS>MOLECULE
ASD03091346
  33   34    0    0    0
SMALL
NO_CHARGES


@<TRIPOS>ATOM
   1 C1            -0.0166     1.3764     0.0096 C.ar    
   2 C2             0.0021    -0.0041     0.0020 C.ar    
   3 C3             1.2110    -0.6896    -0.0132 C.ar    
   4 C4             2.4049     0.0071    -0.0208 C.ar    
   5 C5             2.3950     1.4040    -0.0132 C.ar    
   6 C6             1.1727     2.0889     0.0021 C.ar    
   7 O7             1.1531     3.4462     0.0091 O.3     
   8 O8             1.2193    -2.0494    -0.0201 O.3     
   9 C9             3.6664     2.1551    -0.0208 C.2     
  10 C10            4.9000     1.4593    -0.0358 C.2     
  11 O11            3.6543     3.3732    -0.0142 O.2     
  12 C12            6.0658     2.1480    -0.0428 C.2     
  13 C13            7.3427     1.4276    -0.0584 C.ar    
  14 C14            8.5555     2.1394    -0.0656 C.ar    
  15 C15            9.7542     1.4479    -0.0804 C.ar    
  16 C16            9.7530     0.0602    -0.0878 C.ar    
  17 C17            8.5508    -0.6418    -0.0806 C.ar    
  18 C18            7.3607     0.0266    -0.0603 C.ar    
  19 O19           10.9297    -0.6159    -0.1027 O.3     
  20 O20           11.4606    -0.9208     1.2326 O.3     
  21 O21            8.5505     3.4962    -0.0587 O.3     
  22 H22           -0.9598     1.9024     0.0169 H       
  23 H23           -0.9274    -0.5540     0.0083 H       
  24 H24            3.3433    -0.5274    -0.0323 H       
  25 H25            1.1389     3.8440    -0.8722 H       
  26 H26            1.2131    -2.4382    -0.9055 H       
  27 H27            4.9108     0.3793    -0.0417 H       
  28 H28            6.0550     3.2279    -0.0369 H       
  29 H29           10.6896     1.9877    -0.0864 H       
  30 H30            8.5599    -1.7217    -0.0869 H       
  31 H31            6.4322    -0.5249    -0.0544 H       
  32 H32           12.2990    -1.4026     1.2220 H       
  33 H33            8.5570     3.8850     0.8267 H       
@<TRIPOS>BOND
   1    1    2 ar
   2    1    6 ar
   3    1   22 1
   4    2    3 ar
   5    2   23 1
   6    3    4 ar
   7    3    8 1
   8    4    5 ar
   9    4   24 1
  10    5    6 ar
  11    5    9 1
  12    6    7 1
  13    7   25 1
  14    8   26 1
  15    9   10 1
  16    9   11 2
  17   10   12 2
  18   10   27 1
  19   12   13 1
  20   12   28 1
  21   13   14 ar
  22   13   18 ar
  23   14   15 ar
  24   14   21 1
  25   15   16 ar
  26   15   29 1
  27   16   17 ar
  28   16   19 1
  29   17   18 ar
  30   17   30 1
  31   18   31 1
  32   19   20 1
  33   20   32 1
  34   21   33 1

#	End of record

