#	Name: ASD03082204
#	Creating user name:	WinNT
#	Creation time:	15. 06. 2019 20:27

#	Modifying user name:	WinNT
#	Modification time:	15. 06. 2019 20:27

#	Program:	/corina/corina34_cracker 3.40 0067  02.08.2006

@<TRIPOS>MOLECULE
ASD03082204
  40   42    0    0    0
SMALL
NO_CHARGES


@<TRIPOS>ATOM
   1 N1             0.2535     1.8517    -0.2106 N.pl3   
   2 N2             0.0312     0.4661    -0.2628 N.2     
   3 C3             1.1803    -0.1157    -0.0051 C.2     
   4 N4             2.1051     0.8220     0.2045 N.2     
   5 C5             1.5622     2.0167     0.0842 C.2     
   6 N6             1.3984    -1.4940     0.0419 N.pl3   
   7 C7             0.3202    -2.3771    -0.0773 C.ar    
   8 C8             0.5254    -3.6646    -0.5567 C.ar    
   9 C9            -0.5405    -4.5348    -0.6735 C.ar    
  10 C10           -1.8133    -4.1247    -0.3131 C.ar    
  11 C11           -2.0201    -2.8419     0.1649 C.ar    
  12 C12           -0.9559    -1.9699     0.2888 C.ar    
  13 C13           -0.3186    -5.9315    -1.1940 C.3     
  14 F14            1.0373    -6.1094    -1.4890 F       
  15 F15           -0.7101    -6.8589    -0.2224 F       
  16 F16           -1.0772    -6.1230    -2.3538 F       
  17 C17            4.2677     4.6244     0.3027 C.ar    
  18 C18            3.6535     3.3908     0.1469 C.ar    
  19 C19            2.2622     3.3112     0.2437 C.ar    
  20 C20            1.5475     4.4886     0.4952 C.ar    
  21 C21            2.2363     5.6745     0.6372 C.ar    
  22 N22            3.5519     5.7116     0.5393 N.ar    
  23 C23           -0.7354     2.9086    -0.4370 C.3     
  24 O24           -1.3698     3.2401     0.7998 O.3     
  25 F25           -2.8547    -4.9775    -0.4287 F       
  26 O26            5.6188     4.7164     0.2169 O.3     
  27 C27            6.1927     6.0141     0.3862 C.3     
  28 H28            2.2975    -1.8391     0.1571 H       
  29 H29            1.5177    -3.9848    -0.8381 H       
  30 H30           -3.0136    -2.5241     0.4450 H       
  31 H31           -1.1170    -0.9709     0.6663 H       
  32 H32            4.2415     2.5058    -0.0465 H       
  33 H33            0.4708     4.4682     0.5766 H       
  34 H34            1.6912     6.5864     0.8309 H       
  35 H35           -0.2380     3.7915    -0.8384 H       
  36 H36           -1.4845     2.5591    -1.1474 H       
  37 H37           -2.0383     3.9349     0.7251 H       
  38 H38            5.8042     6.6858    -0.3793 H       
  39 H39            5.9349     6.3996     1.3726 H       
  40 H40            7.2767     5.9468     0.2943 H       
@<TRIPOS>BOND
   1    1    2 1
   2    1    5 1
   3    1   23 1
   4    2    3 2
   5    3    4 1
   6    3    6 1
   7    4    5 2
   8    5   19 1
   9    6    7 1
  10    6   28 1
  11    7    8 ar
  12    7   12 ar
  13    8    9 ar
  14    8   29 1
  15    9   10 ar
  16    9   13 1
  17   10   11 ar
  18   10   25 1
  19   11   12 ar
  20   11   30 1
  21   12   31 1
  22   13   14 1
  23   13   15 1
  24   13   16 1
  25   17   18 ar
  26   17   22 ar
  27   17   26 1
  28   18   19 ar
  29   18   32 1
  30   19   20 ar
  31   20   21 ar
  32   20   33 1
  33   21   22 ar
  34   21   34 1
  35   23   24 1
  36   23   35 1
  37   23   36 1
  38   24   37 1
  39   26   27 1
  40   27   38 1
  41   27   39 1
  42   27   40 1

#	End of record

