#	Name: ASD01884716
#	Creating user name:	WinNT
#	Creation time:	15. 06. 2019 19:48

#	Modifying user name:	WinNT
#	Modification time:	15. 06. 2019 19:48

#	Program:	/corina/corina34_cracker 3.40 0067  02.08.2006

@<TRIPOS>MOLECULE
ASD01884716
  39   41    0    0    0
SMALL
NO_CHARGES


@<TRIPOS>ATOM
   1 C1            -0.0170     1.4043     0.0098 C.2     
   2 C2             0.0021    -0.0041     0.0020 C.2     
   3 C3             1.1608     2.0893     0.0022 C.2     
   4 C4             2.3755     1.3691    -0.0133 C.2     
   5 C5             2.3533     0.0052    -0.0204 C.2     
   6 N6             1.1739    -0.6663    -0.0123 N.am    
   7 C7             3.6708     2.0932    -0.0222 C.ar    
   8 H8             1.1653     3.1692     0.0076 H       
   9 F9            -1.1926     2.0699     0.0190 F       
  10 O10           -1.0480    -0.6264     0.0087 O.2     
  11 C11            1.1761    -2.1312    -0.0202 C.3     
  12 C12            1.1910    -2.6412     1.3978 C.ar    
  13 C13            4.0209     2.8843    -1.1148 C.ar    
  14 C14            5.2253     3.5565    -1.1201 C.ar    
  15 C15            6.0885     3.4452    -0.0388 C.ar    
  16 C16            5.7428     2.6576     1.0507 C.ar    
  17 C17            4.5370     1.9880     1.0644 C.ar    
  18 C18            0.0175    -2.6814     2.1314 C.ar    
  19 C19            0.0321    -3.1501     3.4341 C.ar    
  20 C20            1.2188    -3.5775     4.0011 C.ar    
  21 C21            2.3909    -3.5366     3.2665 C.ar    
  22 C22            2.3753    -3.0741     1.9642 C.ar    
  23 Cl23           1.2384    -4.1648     5.6346 Cl      
  24 F24           -1.1411    -2.2632     1.5764 F       
  25 O25            7.2748     4.1083    -0.0470 O.3     
  26 C26            8.1148     3.9494     1.0981 C.3     
  27 H27            3.2824    -0.5452    -0.0326 H       
  28 H28            0.2817    -2.4932    -0.5271 H       
  29 H29            2.0615    -2.4904    -0.5448 H       
  30 H30            3.3500     2.9706    -1.9568 H       
  31 H31            5.4972     4.1697    -1.9665 H       
  32 H32            6.4168     2.5724     1.8903 H       
  33 H33            4.2685     1.3754     1.9124 H       
  34 H34           -0.8827    -3.1816     4.0073 H       
  35 H35            3.3175    -3.8705     3.7096 H       
  36 H36            3.2905    -3.0425     1.3917 H       
  37 H37            7.5891     4.3006     1.9859 H       
  38 H38            8.3688     2.8963     1.2190 H       
  39 H39            9.0273     4.5300     0.9627 H       
@<TRIPOS>BOND
   1    1    2 1
   2    1    3 2
   3    1    9 1
   4    2   10 2
   5    2    6 am
   6    3    4 1
   7    3    8 1
   8    4    5 2
   9    4    7 1
  10    5    6 1
  11    5   27 1
  12    6   11 1
  13    7   13 ar
  14    7   17 ar
  15   11   12 1
  16   11   28 1
  17   11   29 1
  18   12   18 ar
  19   12   22 ar
  20   13   14 ar
  21   13   30 1
  22   14   15 ar
  23   14   31 1
  24   15   16 ar
  25   15   25 1
  26   16   17 ar
  27   16   32 1
  28   17   33 1
  29   18   19 ar
  30   18   24 1
  31   19   20 ar
  32   19   34 1
  33   20   21 ar
  34   20   23 1
  35   21   22 ar
  36   21   35 1
  37   22   36 1
  38   25   26 1
  39   26   37 1
  40   26   38 1
  41   26   39 1

#	End of record

