#	Name: ASD01900190
#	Creating user name:	WinNT
#	Creation time:	15. 06. 2019 19:51

#	Modifying user name:	WinNT
#	Modification time:	15. 06. 2019 19:51

#	Program:	/corina/corina34_cracker 3.40 0067  02.08.2006

@<TRIPOS>MOLECULE
ASD01900190
  39   42    0    0    0
SMALL
NO_CHARGES


@<TRIPOS>ATOM
   1 N1            -0.0167     1.3829     0.0096 N.pl3   
   2 S2            -1.2954    -1.1081     0.1228 S.3     
   3 C3             0.0692    -0.0014    -0.0079 C.2     
   4 N4             1.1680    -0.6838    -0.1240 N.2     
   5 C5             1.0620    -2.0008    -0.1383 C.2     
   6 C6             2.1411    -3.0099    -0.4031 C.2     
   7 C7             1.8788    -4.1001    -1.2578 C.2     
   8 C8             0.6020    -4.2433    -2.0288 C.3     
   9 C9            -0.5757    -4.6967    -1.1487 C.3     
  10 C10           -0.5144    -3.9302     0.1819 C.3     
  11 C11           -0.1961    -2.4753     0.0346 C.2     
  12 N12            2.9373    -4.8573    -1.2589 N.2     
  13 N13            3.9167    -4.2532    -0.4542 N.pl3   
  14 C14            3.4006    -3.1063     0.0534 C.2     
  15 C15            1.1428     2.1520     0.0089 C.ar    
  16 C16            1.0514     3.5370    -0.0859 C.ar    
  17 C17            2.2120     4.2893    -0.0854 C.ar    
  18 C18            3.4299     3.6288     0.0102 C.ar    
  19 C19            3.4467     2.2514     0.1013 C.ar    
  20 N20            2.3231     1.5596     0.1039 N.ar    
  21 C21            4.7652     1.5290     0.2053 C.3     
  22 C22            2.1563     5.7918    -0.1869 C.3     
  23 H23           -0.8852     1.8148     0.0184 H       
  24 H24            0.3542    -3.2828    -2.4807 H       
  25 H25            0.7504    -4.9754    -2.8225 H       
  26 H26           -1.5162    -4.4777    -1.6544 H       
  27 H27           -0.4997    -5.7672    -0.9584 H       
  28 H28           -1.4782    -4.0256     0.6820 H       
  29 H29            0.2469    -4.3898     0.8123 H       
  30 H30            4.8087    -4.5970    -0.2898 H       
  31 H31            3.9058    -2.4046     0.7006 H       
  32 H32            0.0872     4.0181    -0.1592 H       
  33 H33            4.3544     4.1870     0.0129 H       
  34 H34            5.0391     1.4221     1.2549 H       
  35 H35            4.6758     0.5424    -0.2492 H       
  36 H36            5.5344     2.1002    -0.3146 H       
  37 H37            2.0986     6.2217     0.8131 H       
  38 H38            3.0535     6.1557    -0.6876 H       
  39 H39            1.2764     6.0849    -0.7596 H       
@<TRIPOS>BOND
   1    1    3 1
   2    1   15 1
   3    1   23 1
   4    2    3 1
   5    2   11 1
   6    3    4 2
   7    4    5 1
   8    5    6 1
   9    5   11 2
  10    6    7 1
  11    6   14 2
  12    7    8 1
  13    7   12 2
  14    8    9 1
  15    8   24 1
  16    8   25 1
  17    9   10 1
  18    9   26 1
  19    9   27 1
  20   10   11 1
  21   10   28 1
  22   10   29 1
  23   12   13 1
  24   13   14 1
  25   13   30 1
  26   14   31 1
  27   15   16 ar
  28   15   20 ar
  29   16   17 ar
  30   16   32 1
  31   17   18 ar
  32   17   22 1
  33   18   19 ar
  34   18   33 1
  35   19   20 ar
  36   19   21 1
  37   21   34 1
  38   21   35 1
  39   21   36 1
  40   22   37 1
  41   22   38 1
  42   22   39 1

#	End of record

