#	Name: ASD01883055
#	Creating user name:	WinNT
#	Creation time:	15. 06. 2019 19:45

#	Modifying user name:	WinNT
#	Modification time:	15. 06. 2019 19:45

#	Program:	/corina/corina34_cracker 3.40 0067  02.08.2006

@<TRIPOS>MOLECULE
ASD01883055
  42   44    0    0    0
SMALL
NO_CHARGES


@<TRIPOS>ATOM
   1 N1            -0.0162     1.3417     0.0094 N.am    
   2 C2             0.0021    -0.0041     0.0020 C.2     
   3 C3            -1.2166    -0.7275     0.0102 C.2     
   4 C4            -2.4257    -0.0118     0.0261 C.2     
   5 C5            -2.3786     1.3954     0.0332 C.2     
   6 C6            -1.1848     2.0319     0.0299 C.2     
   7 O7             1.0656    -0.6000    -0.0121 O.2     
   8 C8            -1.2158    -2.1595     0.0021 C.1     
   9 N9            -1.2152    -3.2954    -0.0044 N.1     
  10 C10            1.2511     2.0766     0.0013 C.3     
  11 C11           -3.7229    -0.7230     0.0347 C.ar    
  12 C12            1.6785     2.3402    -1.4440 C.3     
  13 C13            2.9345     3.2139    -1.4531 C.3     
  14 C14            3.3619     3.4775    -2.8984 C.3     
  15 C15            3.6610     2.1472    -3.5924 C.3     
  16 C16            2.4050     1.2735    -3.5833 C.3     
  17 C17            1.9776     1.0099    -2.1381 C.3     
  18 C18           -4.5720    -0.6188     1.1376 C.ar    
  19 C19           -5.7803    -1.2846     1.1392 C.ar    
  20 C20           -6.1508    -2.0546     0.0510 C.ar    
  21 C21           -5.3137    -2.1620    -1.0455 C.ar    
  22 C22           -4.1055    -1.4964    -1.0624 C.ar    
  23 H23           -3.2952     1.9665     0.0453 H       
  24 H24           -1.1612     3.1116     0.0354 H       
  25 H25            1.1240     3.0260     0.5214 H       
  26 H26            2.0167     1.4862     0.5046 H       
  27 H27            0.8752     2.8533    -1.9726 H       
  28 H28            2.7215     4.1616    -0.9586 H       
  29 H29            3.7379     2.7008    -0.9245 H       
  30 H30            2.5586     3.9906    -3.4270 H       
  31 H31            4.2567     4.0999    -2.9049 H       
  32 H32            3.9655     2.3349    -4.6221 H       
  33 H33            4.4644     1.6341    -3.0638 H       
  34 H34            1.6017     1.7866    -4.1120 H       
  35 H35            2.6181     0.3257    -4.0778 H       
  36 H36            2.7810     0.4968    -1.6094 H       
  37 H37            1.0828     0.3875    -2.1316 H       
  38 H38           -4.2836    -0.0187     1.9879 H       
  39 H39           -6.4382    -1.2049     1.9920 H       
  40 H40           -7.0975    -2.5744     0.0576 H       
  41 H41           -5.6088    -2.7647    -1.8917 H       
  42 H42           -3.4531    -1.5807    -1.9190 H       
@<TRIPOS>BOND
   1    1    2 am
   2    1   10 1
   3    1    6 1
   4    2    3 1
   5    2    7 2
   6    3    4 2
   7    3    8 1
   8    4    5 1
   9    4   11 1
  10    5    6 2
  11    5   23 1
  12    6   24 1
  13    8    9 3
  14   10   12 1
  15   10   25 1
  16   10   26 1
  17   11   18 ar
  18   11   22 ar
  19   12   13 1
  20   12   17 1
  21   12   27 1
  22   13   14 1
  23   13   28 1
  24   13   29 1
  25   14   15 1
  26   14   30 1
  27   14   31 1
  28   15   16 1
  29   15   32 1
  30   15   33 1
  31   16   17 1
  32   16   34 1
  33   16   35 1
  34   17   36 1
  35   17   37 1
  36   18   19 ar
  37   18   38 1
  38   19   20 ar
  39   19   39 1
  40   20   21 ar
  41   20   40 1
  42   21   22 ar
  43   21   41 1
  44   22   42 1

#	End of record

