#	Name: ASD05213033
#	Creating user name:	WinNT
#	Creation time:	15. 06. 2019 20:57

#	Modifying user name:	WinNT
#	Modification time:	15. 06. 2019 20:57

#	Program:	/corina/corina34_cracker 3.40 0067  02.08.2006

@<TRIPOS>MOLECULE
ASD05213033
  27   29    0    0    0
SMALL
NO_CHARGES


@<TRIPOS>ATOM
   1 S1            -0.0218     1.7577     0.0117 S.3     
   2 C2             0.0021    -0.0041     0.0020 C.2     
   3 N3             1.0843    -0.7423    -0.0118 N.2     
   4 C4             0.7402    -2.0564    -0.0149 C.ar    
   5 C5            -0.6631    -2.1168    -0.0019 C.ar    
   6 N6            -1.1053    -0.8044     0.0138 N.pl3   
   7 C7             1.4795    -3.2421    -0.0277 C.ar    
   8 C8             0.8272    -4.4546    -0.0274 C.ar    
   9 C9            -0.5588    -4.5084    -0.0145 C.ar    
  10 C10           -1.3032    -3.3469    -0.0014 C.ar    
  11 C11            1.7090     2.0873    -0.0030 C.2     
  12 C12           -2.5003    -0.3576     0.0311 C.3     
  13 S13            2.4091     3.6471    -0.0014 S.3     
  14 C14            4.0206     2.9356    -0.0199 C.2     
  15 C15            3.8872     1.6083    -0.0256 C.2     
  16 N16            2.6378     1.1818    -0.0111 N.2     
  17 N17            5.3014     3.6816    -0.0282 N.pl3   
  18 O18            6.3585     3.0767    -0.0415 O.2     
  19 O19            5.2967     4.8996    -0.0218 O.2     
  20 H20            2.5589    -3.2076    -0.0381 H       
  21 H21            1.3990    -5.3708    -0.0376 H       
  22 H22           -1.0585    -5.4659    -0.0144 H       
  23 H23           -2.3820    -3.3956     0.0089 H       
  24 H24           -2.8364    -0.2557     1.0630 H       
  25 H25           -2.5797     0.6053    -0.4736 H       
  26 H26           -3.1228    -1.0898    -0.4831 H       
  27 H27            4.7329     0.9367    -0.0374 H       
@<TRIPOS>BOND
   1    1    2 1
   2    1   11 1
   3    2    3 2
   4    2    6 1
   5    3    4 1
   6    4    5 ar
   7    4    7 ar
   8    5    6 1
   9    5   10 ar
  10    6   12 1
  11    7    8 ar
  12    7   20 1
  13    8    9 ar
  14    8   21 1
  15    9   10 ar
  16    9   22 1
  17   10   23 1
  18   11   13 1
  19   11   16 2
  20   12   24 1
  21   12   25 1
  22   12   26 1
  23   13   14 1
  24   14   15 2
  25   14   17 1
  26   15   16 1
  27   15   27 1
  28   17   18 2
  29   17   19 2

#	End of record

