#	Name: ASD01812466
#	Creating user name:	WinNT
#	Creation time:	15. 06. 2019 19:28

#	Modifying user name:	WinNT
#	Modification time:	15. 06. 2019 19:28

#	Program:	/corina/corina34_cracker 3.40 0067  02.08.2006

@<TRIPOS>MOLECULE
ASD01812466
  64   68    0    0    0
SMALL
NO_CHARGES


@<TRIPOS>ATOM
   1 C1             0.6958     2.1615     0.4513 C.ar    
   2 C2             0.7060     0.8688     0.9391 C.ar    
   3 C3             1.8990     0.1779     1.0430 C.ar    
   4 C4             3.0821     0.7765     0.6578 C.ar    
   5 C5             3.0810     2.0774     0.1644 C.ar    
   6 C6             1.8809     2.7709     0.0639 C.ar    
   7 N7             4.2981     2.6482    -0.2211 N.3     
   8 C8             4.2315     4.1135    -0.2674 C.3     
   9 C9             3.0018     4.5221    -1.0889 C.3     
  10 O10            1.8377     4.0490    -0.4034 O.3     
  11 C11            5.3905     2.1982     0.6518 C.3     
  12 C12            6.6987     2.7462     0.1425 C.ar    
  13 C13            7.3780     2.0857    -0.8647 C.ar    
  14 C14            7.2145     3.9114     0.6793 C.ar    
  15 C15            8.4131     4.4163     0.2143 C.ar    
  16 C16            9.1001     3.7526    -0.7932 C.ar    
  17 C17            8.5772     2.5855    -1.3336 C.ar    
  18 N18            3.8933     6.6773    -1.9130 N.am    
  19 C19            2.9465     6.0231    -1.2115 C.2     
  20 O20            2.0499     6.6424    -0.6790 O.2     
  21 N21           10.3168     4.2626    -1.2673 N.pl3   
  22 C22           11.0833     3.7180    -2.2392 C.2     
  23 C23           12.1686     4.5101    -2.3999 C.2     
  24 C24           12.0630     5.5739    -1.4972 C.2     
  25 N25           10.9508     5.4298    -0.8224 N.2     
  26 C26            3.8395     8.1364    -2.0322 C.3     
  27 C27            4.5719     8.5716    -3.3030 C.3     
  28 C28            4.5107     8.7728    -0.8134 C.3     
  29 O29            5.8984     8.4320    -0.8018 O.3     
  30 C30            3.9072     7.9496    -4.5039 C.ar    
  31 C31            4.3919     6.7650    -5.0261 C.ar    
  32 C32            3.7822     6.1944    -6.1277 C.ar    
  33 C33            2.6874     6.8083    -6.7069 C.ar    
  34 C34            2.2020     7.9924    -6.1842 C.ar    
  35 C35            2.8091     8.5607    -5.0800 C.ar    
  36 O36            4.5243     9.9953    -3.4164 O.3     
  37 H37           -0.2379     2.6977     0.3669 H       
  38 H38           -0.2183     0.3980     1.2398 H       
  39 H39            1.9057    -0.8317     1.4265 H       
  40 H40            4.0118     0.2331     0.7402 H       
  41 H41            4.1427     4.5079     0.7449 H       
  42 H42            5.1328     4.5061    -0.7380 H       
  43 H43            3.0539     4.0728    -2.0806 H       
  44 H44            5.2165     2.5573     1.6661 H       
  45 H45            5.4289     1.1089     0.6536 H       
  46 H46            6.9707     1.1781    -1.2849 H       
  47 H47            6.6795     4.4275     1.4628 H       
  48 H48            8.8153     5.3267     0.6337 H       
  49 H49            9.1077     2.0689    -2.1198 H       
  50 H50            4.6104     6.1820    -2.3389 H       
  51 H51           10.8680     2.8134    -2.7884 H       
  52 H52           12.9744     4.3492    -3.1007 H       
  53 H53           12.7744     6.3781    -1.3806 H       
  54 H54            2.7995     8.4586    -2.0838 H       
  55 H55            5.6109     8.2456    -3.2533 H       
  56 H56            4.4031     9.8563    -0.8638 H       
  57 H57            4.0380     8.4026     0.0963 H       
  58 H58            6.3881     8.8024    -0.0547 H       
  59 H59            5.2473     6.2854    -4.5735 H       
  60 H60            4.1614     5.2693    -6.5360 H       
  61 H61            2.2114     6.3629    -7.5680 H       
  62 H62            1.3469     8.4721    -6.6370 H       
  63 H63            2.4277     9.4839    -4.6694 H       
  64 H64            3.6325    10.3648    -3.3600 H       
@<TRIPOS>BOND
   1    1    2 ar
   2    1    6 ar
   3    1   37 1
   4    2    3 ar
   5    2   38 1
   6    3    4 ar
   7    3   39 1
   8    4    5 ar
   9    4   40 1
  10    5    7 1
  11    5    6 ar
  12    6   10 1
  13    7   11 1
  14    7    8 1
  15    8    9 1
  16    8   41 1
  17    8   42 1
  18    9   10 1
  19    9   19 1
  20    9   43 1
  21   11   12 1
  22   11   44 1
  23   11   45 1
  24   12   14 ar
  25   12   13 ar
  26   13   17 ar
  27   13   46 1
  28   14   15 ar
  29   14   47 1
  30   15   16 ar
  31   15   48 1
  32   16   17 ar
  33   16   21 1
  34   17   49 1
  35   18   19 am
  36   18   26 1
  37   18   50 1
  38   19   20 2
  39   21   22 1
  40   21   25 1
  41   22   23 2
  42   22   51 1
  43   23   24 1
  44   23   52 1
  45   24   25 2
  46   24   53 1
  47   26   27 1
  48   26   28 1
  49   26   54 1
  50   27   30 1
  51   27   36 1
  52   27   55 1
  53   28   29 1
  54   28   56 1
  55   28   57 1
  56   29   58 1
  57   30   31 ar
  58   30   35 ar
  59   31   32 ar
  60   31   59 1
  61   32   33 ar
  62   32   60 1
  63   33   34 ar
  64   33   61 1
  65   34   35 ar
  66   34   62 1
  67   35   63 1
  68   36   64 1

#	End of record

