#	Name: ASD01900153
#	Creating user name:	WinNT
#	Creation time:	15. 06. 2019 19:51

#	Modifying user name:	WinNT
#	Modification time:	15. 06. 2019 19:51

#	Program:	/corina/corina34_cracker 3.40 0067  02.08.2006

@<TRIPOS>MOLECULE
ASD01900153
  39   41    0    0    0
SMALL
NO_CHARGES


@<TRIPOS>ATOM
   1 C1             0.0438     1.2936     0.1002 C.ar    
   2 C2            -1.0238     1.4865    -0.7616 C.ar    
   3 C3            -0.9626     2.5026    -1.7027 C.ar    
   4 C4             0.1736     3.2947    -1.7473 C.ar    
   5 C5             1.2092     3.0437    -0.8496 C.ar    
   6 N6             1.1106     2.0603     0.0363 N.ar    
   7 C7             2.4307     3.8810    -0.8846 C.2     
   8 N8             3.4358     3.6430    -0.0189 N.am    
   9 O9             2.5264     4.7826    -1.6940 O.2     
  10 C10            4.6283     4.3697    -0.1141 C.ar    
  11 C11            4.5981     5.7088    -0.4819 C.ar    
  12 C12            5.7740     6.4255    -0.5754 C.ar    
  13 C13            6.9876     5.8076    -0.3021 C.ar    
  14 C14            7.0179     4.4685     0.0653 C.ar    
  15 C15            5.8414     3.7533     0.1647 C.ar    
  16 N16            8.1803     6.5344    -0.3973 N.am    
  17 C17            8.1973     7.8454    -0.0851 C.2     
  18 C18            9.4265     8.6383    -0.2926 C.ar    
  19 O19            7.2011     8.3755     0.3673 O.2     
  20 C20            9.4478     9.9975     0.0300 C.ar    
  21 C21           10.6010    10.7322    -0.1669 C.ar    
  22 C22           11.7313    10.1250    -0.6822 C.ar    
  23 C23           11.7164     8.7787    -1.0037 C.ar    
  24 C24           10.5743     8.0315    -0.8066 C.ar    
  25 Cl25           8.0288    10.7611     0.6759 Cl      
  26 H26            7.9615     3.9878     0.2771 H       
  27 H27           -0.0025     0.5058     0.8375 H       
  28 H28           -1.8951     0.8512    -0.7010 H       
  29 H29           -1.7816     2.6728    -2.3858 H       
  30 H30            0.2553     4.0951    -2.4678 H       
  31 H31            3.3328     2.9682     0.6702 H       
  32 H32            3.6546     6.1891    -0.6951 H       
  33 H33            5.7506     7.4667    -0.8614 H       
  34 H34            5.8649     2.7122     0.4507 H       
  35 H35            8.9944     6.0945    -0.6881 H       
  36 H36           10.6196    11.7830     0.0817 H       
  37 H37           12.6301    10.7040    -0.8349 H       
  38 H38           12.6029     8.3112    -1.4061 H       
  39 H39           10.5646     6.9812    -1.0581 H       
@<TRIPOS>BOND
   1    1    2 ar
   2    1    6 ar
   3    1   27 1
   4    2    3 ar
   5    2   28 1
   6    3    4 ar
   7    3   29 1
   8    4    5 ar
   9    4   30 1
  10    5    6 ar
  11    5    7 1
  12    7    8 am
  13    7    9 2
  14    8   10 1
  15    8   31 1
  16   10   11 ar
  17   10   15 ar
  18   11   12 ar
  19   11   32 1
  20   12   13 ar
  21   12   33 1
  22   13   14 ar
  23   13   16 1
  24   14   15 ar
  25   14   26 1
  26   15   34 1
  27   16   17 am
  28   16   35 1
  29   17   18 1
  30   17   19 2
  31   18   20 ar
  32   18   24 ar
  33   20   21 ar
  34   20   25 1
  35   21   22 ar
  36   21   36 1
  37   22   23 ar
  38   22   37 1
  39   23   24 ar
  40   23   38 1
  41   24   39 1

#	End of record

