#	Name: ASD00451032
#	Creating user name:	WinNT
#	Creation time:	15. 06. 2019 18:36

#	Modifying user name:	WinNT
#	Modification time:	15. 06. 2019 18:36

#	Program:	/corina/corina34_cracker 3.40 0067  02.08.2006

@<TRIPOS>MOLECULE
ASD00451032
  69   73    0    0    0
SMALL
NO_CHARGES


@<TRIPOS>ATOM
   1 C1             0.0435     1.2802     0.1108 C.ar    
   2 C2            -0.0134    -0.0951     0.0678 C.ar    
   3 C3             1.2941     1.9298     0.0463 C.ar    
   4 N4            -1.1335     2.0295     0.2120 N.am    
   5 C5             1.1486    -0.8541    -0.0382 C.ar    
   6 C6             1.3888     3.3302     0.0879 C.ar    
   7 C7             2.4757     1.1565    -0.0620 C.ar    
   8 C8             2.3830    -0.2497    -0.1026 C.ar    
   9 C9             2.6116     3.9254     0.0240 C.ar    
  10 C10            3.7199     1.8051    -0.1256 C.ar    
  11 O11            3.5080    -1.0049    -0.2050 O.3     
  12 C12            3.7742     3.1647    -0.0826 C.ar    
  13 C13            4.2277    -1.2328     0.9236 C.ar    
  14 C14            5.4483    -1.9016     0.8717 C.ar    
  15 C15            3.7689    -0.7992     2.1655 C.ar    
  16 C16            6.1599    -2.1177     2.0520 C.ar    
  17 N17            6.1980    -2.4568    -0.1633 N.am    
  18 C18            4.5288    -1.0497     3.2903 C.ar    
  19 N19            7.3194    -2.7970     1.6995 N.am    
  20 N20            5.6796    -1.6904     3.2101 N.ar    
  21 C21            7.3167    -2.9871     0.3671 C.2     
  22 C22            8.3694    -3.2330     2.6234 C.3     
  23 O23            8.1916    -3.5520    -0.2624 O.2     
  24 C24           -2.2612     1.5971    -0.3860 C.2     
  25 O25           -2.2324     0.6118    -1.0980 O.2     
  26 N26           -3.4209     2.2568    -0.1949 N.am    
  27 C27           -4.6083     1.7570    -0.7410 C.ar    
  28 C28            5.8325    -2.4631    -1.5820 C.3     
  29 C29           -4.5918     1.1151    -1.9721 C.ar    
  30 C30           -5.7658     0.6229    -2.5084 C.ar    
  31 C31           -6.9564     0.7692    -1.8210 C.ar    
  32 C32           -6.9762     1.4082    -0.5946 C.ar    
  33 C33           -5.8050     1.8970    -0.0501 C.ar    
  34 C34           -8.2763     1.5660     0.1511 C.3     
  35 C35           -9.4099     0.9373    -0.6617 C.3     
  36 C36           -8.1737     0.8675     1.5084 C.3     
  37 C37           -8.5651     3.0534     0.3634 C.3     
  38 C38            6.3871    -1.2071    -2.2570 C.3     
  39 H39           -0.9715    -0.5910     0.1173 H       
  40 H40           -1.1379     2.8603     0.7127 H       
  41 H41            1.0805    -1.9315    -0.0698 H       
  42 H42            0.4959     3.9322     0.1700 H       
  43 H43            2.6815     5.0026     0.0559 H       
  44 H44            4.6291     1.2281    -0.2080 H       
  45 H45            4.7323     3.6609    -0.1317 H       
  46 H46            2.8294    -0.2728     2.2472 H       
  47 H47            4.1752    -0.7142     4.2541 H       
  48 H48            8.1440    -4.2375     2.9817 H       
  49 H49            9.3290    -3.2386     2.1064 H       
  50 H50            8.4165    -2.5475     3.4695 H       
  51 H51           -3.4323     3.0780     0.3212 H       
  52 H52            6.2513    -3.3481    -2.0611 H       
  53 H53            4.7468    -2.4777    -1.6774 H       
  54 H54           -3.6622     1.0010    -2.5098 H       
  55 H55           -5.7536     0.1235    -3.4660 H       
  56 H56           -7.8730     0.3842    -2.2428 H       
  57 H57           -5.8211     2.3958     0.9077 H       
  58 H58           -9.2041    -0.1224    -0.8130 H       
  59 H59          -10.3502     1.0514    -0.1224 H       
  60 H60           -9.4829     1.4349    -1.6287 H       
  61 H61           -7.3661     1.3154     2.0875 H       
  62 H62           -9.1140     0.9816     2.0478 H       
  63 H63           -7.9679    -0.1922     1.3572 H       
  64 H64           -8.6381     3.5510    -0.6036 H       
  65 H65           -9.5054     3.1675     0.9027 H       
  66 H66           -7.7575     3.5013     0.9424 H       
  67 H67            5.9683    -0.3221    -1.7779 H       
  68 H68            7.4728    -1.1925    -2.1616 H       
  69 H69            6.1152    -1.2118    -3.3126 H       
@<TRIPOS>BOND
   1    1    2 ar
   2    1    3 ar
   3    1    4 1
   4    2    5 ar
   5    2   39 1
   6    3    6 ar
   7    3    7 ar
   8    4   24 am
   9    4   40 1
  10    5    8 ar
  11    5   41 1
  12    6    9 ar
  13    6   42 1
  14    7    8 ar
  15    7   10 ar
  16    8   11 1
  17    9   12 ar
  18    9   43 1
  19   10   12 ar
  20   10   44 1
  21   11   13 1
  22   12   45 1
  23   13   15 ar
  24   13   14 ar
  25   14   16 ar
  26   14   17 1
  27   15   18 ar
  28   15   46 1
  29   16   19 1
  30   16   20 ar
  31   17   21 am
  32   17   28 1
  33   18   20 ar
  34   18   47 1
  35   19   22 1
  36   19   21 am
  37   21   23 2
  38   22   48 1
  39   22   49 1
  40   22   50 1
  41   24   25 2
  42   24   26 am
  43   26   27 1
  44   26   51 1
  45   27   29 ar
  46   27   33 ar
  47   28   38 1
  48   28   52 1
  49   28   53 1
  50   29   30 ar
  51   29   54 1
  52   30   31 ar
  53   30   55 1
  54   31   32 ar
  55   31   56 1
  56   32   33 ar
  57   32   34 1
  58   33   57 1
  59   34   35 1
  60   34   36 1
  61   34   37 1
  62   35   58 1
  63   35   59 1
  64   35   60 1
  65   36   61 1
  66   36   62 1
  67   36   63 1
  68   37   64 1
  69   37   65 1
  70   37   66 1
  71   38   67 1
  72   38   68 1
  73   38   69 1

#	End of record

