#	Name: ASD01814026
#	Creating user name:	WinNT
#	Creation time:	15. 06. 2019 19:31

#	Modifying user name:	WinNT
#	Modification time:	15. 06. 2019 19:31

#	Program:	/corina/corina34_cracker 3.40 0067  02.08.2006

@<TRIPOS>MOLECULE
ASD01814026
  47   50    0    0    0
SMALL
NO_CHARGES


@<TRIPOS>ATOM
   1 C1             1.3997     2.4579    -0.4537 C.ar    
   2 C2             1.2179     1.0946    -0.2807 C.ar    
   3 C3             2.2915     0.2304    -0.3111 C.ar    
   4 C4             3.5767     0.7229    -0.5176 C.ar    
   5 C5             3.7616     2.1052    -0.6936 C.ar    
   6 C6             2.6652     2.9704    -0.6602 C.ar    
   7 N7             4.6573    -0.1322    -0.5493 N.pl3   
   8 C8             5.9127     0.2918    -0.7438 C.2     
   9 C9             6.2182     1.6249    -0.9285 C.2     
  10 C10            5.1274     2.6136    -0.9115 C.2     
  11 F11            2.8418     4.2991    -0.8292 F       
  12 O12            5.3449     3.8021    -1.0700 O.2     
  13 C13            7.6091     2.0506    -1.1382 C.2     
  14 O14            7.8949     3.3558    -1.3174 O.3     
  15 O15            8.5020     1.2257    -1.1499 O.2     
  16 C16            4.4226    -1.5661    -0.3617 C.3     
  17 C17            4.1772    -2.2143    -1.6998 C.ar    
  18 C18            5.2398    -2.7183    -2.4274 C.ar    
  19 C19            5.0185    -3.3129    -3.6540 C.ar    
  20 C20            3.7265    -3.4048    -4.1567 C.ar    
  21 C21            2.6613    -2.8978    -3.4228 C.ar    
  22 C22            2.8893    -2.3088    -2.1948 C.ar    
  23 N23            3.4991    -4.0052    -5.3972 N.pl3   
  24 C24            4.1731    -5.1835    -5.7386 C.ar    
  25 C25            4.9459    -5.8415    -4.7931 C.ar    
  26 C26            5.6107    -7.0051    -5.1328 C.ar    
  27 C27            5.5075    -7.5154    -6.4132 C.ar    
  28 C28            4.7392    -6.8645    -7.3615 C.ar    
  29 C29            4.0651    -5.7019    -7.0278 C.ar    
  30 O30            3.3089    -5.0612    -7.9590 O.3     
  31 H31            0.5477     3.1213    -0.4314 H       
  32 H32            0.2235     0.7049    -0.1200 H       
  33 H33            2.1352    -0.8294    -0.1741 H       
  34 H34            6.7127    -0.4336    -0.7562 H       
  35 H35            8.8241     3.5874    -1.4516 H       
  36 H36            5.2965    -2.0191     0.1066 H       
  37 H37            3.5517    -1.7112     0.2775 H       
  38 H38            6.2438    -2.6465    -2.0361 H       
  39 H39            5.8488    -3.7057    -4.2221 H       
  40 H40            1.6558    -2.9675    -3.8106 H       
  41 H41            2.0618    -1.9144    -1.6237 H       
  42 H42            2.8741    -3.6056    -6.0222 H       
  43 H43            5.0285    -5.4448    -3.7920 H       
  44 H44            6.2123    -7.5165    -4.3959 H       
  45 H45            6.0286    -8.4247    -6.6741 H       
  46 H46            4.6611    -7.2658    -8.3611 H       
  47 H47            2.3874    -5.3529    -7.9858 H       
@<TRIPOS>BOND
   1    1    2 ar
   2    1    6 ar
   3    1   31 1
   4    2    3 ar
   5    2   32 1
   6    3    4 ar
   7    3   33 1
   8    4    5 ar
   9    4    7 1
  10    5    6 ar
  11    5   10 1
  12    6   11 1
  13    7    8 1
  14    7   16 1
  15    8    9 2
  16    8   34 1
  17    9   10 1
  18    9   13 1
  19   10   12 2
  20   13   14 1
  21   13   15 2
  22   14   35 1
  23   16   17 1
  24   16   36 1
  25   16   37 1
  26   17   18 ar
  27   17   22 ar
  28   18   19 ar
  29   18   38 1
  30   19   20 ar
  31   19   39 1
  32   20   21 ar
  33   20   23 1
  34   21   22 ar
  35   21   40 1
  36   22   41 1
  37   23   24 1
  38   23   42 1
  39   24   25 ar
  40   24   29 ar
  41   25   26 ar
  42   25   43 1
  43   26   27 ar
  44   26   44 1
  45   27   28 ar
  46   27   45 1
  47   28   29 ar
  48   28   46 1
  49   29   30 1
  50   30   47 1

#	End of record

