#	Name: ASD00170531
#	Creating user name:	WinNT
#	Creation time:	15. 06. 2019 18:32

#	Modifying user name:	WinNT
#	Modification time:	15. 06. 2019 18:32

#	Program:	/corina/corina34_cracker 3.40 0067  02.08.2006

@<TRIPOS>MOLECULE
ASD00170531
  53   56    0    0    0
SMALL
NO_CHARGES


@<TRIPOS>ATOM
   1 C1            -0.0126     1.5118     0.0872 C.3     
   2 N2             0.0002     0.0431     0.0605 N.3     
   3 C3            -1.3424    -0.4999     0.3098 C.3     
   4 C4            -1.3022    -2.0255     0.1950 C.3     
   5 N5            -0.3329    -2.5615     1.1608 N.3     
   6 C6             1.0098    -2.0185     0.9116 C.3     
   7 C7             0.9695    -0.4928     1.0263 C.3     
   8 C8            -0.3201    -4.0302     1.1341 C.3     
   9 C9             0.8436    -4.5373     1.9463 C.2     
  10 C10            1.9851    -4.9411     1.4109 C.2     
  11 S11            3.1096    -5.4625     2.6525 S.3     
  12 C12            2.0042    -5.1227     3.9045 C.2     
  13 C13            0.8284    -4.6262     3.3913 C.2     
  14 C14           -0.3164    -4.2392     4.2154 C.2     
  15 O15           -0.3697    -3.1222     4.6976 O.2     
  16 C16           -1.4092    -5.2043     4.4630 C.ar    
  17 C17           -2.5551    -4.8037     5.1525 C.ar    
  18 C18           -3.5708    -5.7081     5.3804 C.ar    
  19 C19           -3.4557    -7.0118     4.9267 C.ar    
  20 C20           -2.3212    -7.4150     4.2420 C.ar    
  21 C21           -1.3014    -6.5180     4.0031 C.ar    
  22 Cl22          -4.7382    -8.1449     5.2179 Cl      
  23 N23            2.2561    -5.3139     5.2480 N.pl3   
  24 C24            1.3976     2.0565    -0.1999 C.3     
  25 C25            1.2882     2.9094    -1.4807 C.3     
  26 C26           -0.2032     3.3237    -1.5349 C.3     
  27 C27           -0.9297     2.0527    -1.0291 C.3     
  28 H28           -0.3583     1.8643     1.0590 H       
  29 H29           -1.6681    -0.2190     1.3113 H       
  30 H30           -2.0395    -0.0981    -0.4256 H       
  31 H31           -2.2907    -2.4324     0.4080 H       
  32 H32           -1.0028    -2.3065    -0.8147 H       
  33 H33            1.7068    -2.4202     1.6470 H       
  34 H34            1.3354    -2.2994    -0.0900 H       
  35 H35            1.9580    -0.0859     0.8133 H       
  36 H36            0.6701    -0.2119     2.0360 H       
  37 H37           -1.2506    -4.4093     1.5565 H       
  38 H38           -0.2218    -4.3740     0.1044 H       
  39 H39            2.1956    -4.9491     0.3517 H       
  40 H40           -2.6458    -3.7876     5.5070 H       
  41 H41           -4.4576    -5.3995     5.9140 H       
  42 H42           -2.2370    -8.4328     3.8907 H       
  43 H43           -0.4174    -6.8335     3.4688 H       
  44 H44            3.0837    -5.7329     5.5314 H       
  45 H45            1.6054    -5.0293     5.9087 H       
  46 H46            1.7359     2.6740     0.6322 H       
  47 H47            2.0914     1.2311    -0.3591 H       
  48 H48            1.9264     3.7901    -1.4082 H       
  49 H49            1.5518     2.3172    -2.3570 H       
  50 H50           -0.3941     4.1675    -0.8718 H       
  51 H51           -0.5020     3.5586    -2.5565 H       
  52 H52           -1.0243     1.3221    -1.8325 H       
  53 H53           -1.9101     2.3082    -0.6270 H       
@<TRIPOS>BOND
   1    1    2 1
   2    1   24 1
   3    1   27 1
   4    1   28 1
   5    2    3 1
   6    2    7 1
   7    3    4 1
   8    3   29 1
   9    3   30 1
  10    4    5 1
  11    4   31 1
  12    4   32 1
  13    5    6 1
  14    5    8 1
  15    6    7 1
  16    6   33 1
  17    6   34 1
  18    7   35 1
  19    7   36 1
  20    8    9 1
  21    8   37 1
  22    8   38 1
  23    9   10 2
  24    9   13 1
  25   10   11 1
  26   10   39 1
  27   11   12 1
  28   12   13 2
  29   12   23 1
  30   13   14 1
  31   14   15 2
  32   14   16 1
  33   16   17 ar
  34   16   21 ar
  35   17   18 ar
  36   17   40 1
  37   18   19 ar
  38   18   41 1
  39   19   20 ar
  40   19   22 1
  41   20   21 ar
  42   20   42 1
  43   21   43 1
  44   23   44 1
  45   23   45 1
  46   24   25 1
  47   24   46 1
  48   24   47 1
  49   25   26 1
  50   25   48 1
  51   25   49 1
  52   26   27 1
  53   26   50 1
  54   26   51 1
  55   27   52 1
  56   27   53 1

#	End of record

