#	Name: ASD01470055
#	Creating user name:	WinNT
#	Creation time:	15. 06. 2019 19:21

#	Modifying user name:	WinNT
#	Modification time:	15. 06. 2019 19:21

#	Program:	/corina/corina34_cracker 3.40 0067  02.08.2006

@<TRIPOS>MOLECULE
ASD01470055
  35   38    0    0    0
SMALL
NO_CHARGES


@<TRIPOS>ATOM
   1 O1            -0.2754     1.1579     0.2633 O.3     
   2 C2            -0.2321    -0.1977     0.1779 C.ar    
   3 C3            -0.2650    -0.9671     1.3335 C.ar    
   4 C4            -0.2216    -2.3472     1.2535 C.ar    
   5 C5            -0.1449    -2.9693     0.0249 C.ar    
   6 C6            -0.1113    -2.2037    -1.1440 C.ar    
   7 C7            -0.1609    -0.8109    -1.0612 C.ar    
   8 N8            -0.0352    -2.8166    -2.3642 N.2     
   9 C9             0.8071    -3.8053    -2.5504 C.2     
  10 N10            0.9934    -4.5097    -3.7079 N.am    
  11 C11            1.8898    -5.4821    -3.7253 C.2     
  12 O12            2.1097    -6.1499    -4.7169 O.2     
  13 C13            2.6043    -5.6959    -2.4499 C.2     
  14 C14            3.5850    -6.6317    -2.1748 C.2     
  15 C15            4.4326    -6.7162    -0.9702 C.2     
  16 O16            4.3982    -5.9616    -0.0160 O.2     
  17 N17            5.2490    -7.7742    -1.1125 N.am    
  18 C18            5.0293    -8.4246    -2.3212 C.ar    
  19 C19            4.0067    -7.7676    -3.0207 C.ar    
  20 C20            3.5985    -8.2305    -4.2688 C.ar    
  21 C21            4.2050    -9.3417    -4.8180 C.ar    
  22 C22            5.2154    -9.9930    -4.1298 C.ar    
  23 C23            5.6247    -9.5448    -2.8898 C.ar    
  24 S24            1.9261    -4.4780    -1.3526 S.3     
  25 H25            0.5940     1.5758     0.3301 H       
  26 H26           -0.3243    -0.4858     2.2985 H       
  27 H27           -0.2476    -2.9397     2.1561 H       
  28 H28           -0.1105    -4.0471    -0.0339 H       
  29 H29           -0.1357    -0.2135    -1.9606 H       
  30 H30            0.4770    -4.3001    -4.5018 H       
  31 H31            5.9078    -8.0489    -0.4556 H       
  32 H32            2.8104    -7.7224    -4.8046 H       
  33 H33            3.8912    -9.7044    -5.7857 H       
  34 H34            5.6851   -10.8623    -4.5659 H       
  35 H35            6.4136   -10.0615    -2.3635 H       
@<TRIPOS>BOND
   1    1    2 1
   2    1   25 1
   3    2    3 ar
   4    2    7 ar
   5    3    4 ar
   6    3   26 1
   7    4    5 ar
   8    4   27 1
   9    5    6 ar
  10    5   28 1
  11    6    7 ar
  12    6    8 1
  13    7   29 1
  14    8    9 2
  15    9   10 1
  16    9   24 1
  17   10   11 am
  18   10   30 1
  19   11   12 2
  20   11   13 1
  21   13   14 2
  22   13   24 1
  23   14   15 1
  24   14   19 1
  25   15   16 2
  26   15   17 am
  27   17   18 1
  28   17   31 1
  29   18   19 ar
  30   18   23 ar
  31   19   20 ar
  32   20   21 ar
  33   20   32 1
  34   21   22 ar
  35   21   33 1
  36   22   23 ar
  37   22   34 1
  38   23   35 1

#	End of record

