#	Name: ASD05490046
#	Creating user name:	WinNT
#	Creation time:	15. 06. 2019 21:01

#	Modifying user name:	WinNT
#	Modification time:	15. 06. 2019 21:01

#	Program:	/corina/corina34_cracker 3.40 0067  02.08.2006

@<TRIPOS>MOLECULE
ASD05490046
  74   78    0    0    0
SMALL
NO_CHARGES


@<TRIPOS>ATOM
   1 O1            -0.0173     1.4248     0.0099 O.3     
   2 N2             2.7241     5.3595     0.0030 N.pl3   
   3 N3             2.2883     1.3280    -0.0127 N.ar    
   4 C4             3.4877     1.9005    -0.0215 C.ar    
   5 C5             1.1818     2.0565     0.0018 C.ar    
   6 N6             1.2068     3.3779     0.0082 N.ar    
   7 C7             2.3634     4.0326     0.0003 C.ar    
   8 C8             3.5624     3.3026    -0.0151 C.ar    
   9 N9             4.6391     1.1308    -0.0361 N.pl3   
  10 C10            4.0899     5.4129    -0.0163 C.2     
  11 N11            4.5806     4.2015    -0.0210 N.2     
  12 C12            1.8119     6.5058     0.0175 C.3     
  13 C13            1.5133     6.8921     1.4432 C.ar    
  14 C14            0.4416     6.3176     2.1027 C.ar    
  15 C15            0.0021    -0.0041     0.0020 C.3     
  16 C16           -1.4333    -0.5336     0.0129 C.3     
  17 C17           -1.4126    -2.0635     0.0045 C.3     
  18 C18           -2.8479    -2.5931     0.0153 C.3     
  19 C19            2.3152     7.8156     2.0893 C.ar    
  20 C20            2.0464     8.1731     3.3950 C.ar    
  21 C21            0.9646     7.6017     4.0624 C.ar    
  22 C22            0.1634     6.6676     3.4084 C.ar    
  23 C23            0.6707     7.9819     5.4657 C.ar    
  24 C24            1.6826     7.9612     6.4229 C.ar    
  25 C25           -0.6219     8.3682     5.8325 C.ar    
  26 C26           -0.8875     8.7222     7.1457 C.ar    
  27 C27            0.1226     8.6936     8.0882 C.ar    
  28 C28            1.4042     8.3163     7.7271 C.ar    
  29 C29            2.4985     8.2880     8.7628 C.3     
  30 N30            2.5469     6.9595     9.3878 N.3     
  31 C31            3.7481     6.8154    10.2306 C.3     
  32 C32            1.3523     6.7247    10.2267 C.3     
  33 C33            1.8595     5.8521    11.4018 C.3     
  34 C34            3.2688     6.4508    11.6514 C.3     
  35 O35           -1.6138     8.3968     4.9048 O.3     
  36 C36           -2.9091     8.8016     5.3524 C.3     
  37 O37            4.8243     6.5500    -0.0203 O.3     
  38 C38            6.2458     6.4042    -0.0300 C.3     
  39 H39            4.5753     0.1629    -0.0401 H       
  40 H40            5.5091     1.5596    -0.0425 H       
  41 H41            2.2770     7.3467    -0.4969 H       
  42 H42            0.8842     6.2383    -0.4884 H       
  43 H43           -0.1788     5.5940     1.5947 H       
  44 H44            0.5123    -0.3556    -0.8948 H       
  45 H45            0.5293    -0.3651     0.8851 H       
  46 H46           -1.9435    -0.1821     0.9097 H       
  47 H47           -1.9605    -0.1726    -0.8702 H       
  48 H48           -0.9024    -2.4150    -0.8923 H       
  49 H49           -0.8854    -2.4246     0.8875 H       
  50 H50           -3.3751    -2.2320    -0.8677 H       
  51 H51           -2.8332    -3.6829     0.0093 H       
  52 H52           -3.3581    -2.2415     0.9121 H       
  53 H53            3.1535     8.2575     1.5712 H       
  54 H54            2.6734     8.8940     3.8986 H       
  55 H55           -0.6764     6.2219     3.9208 H       
  56 H56            2.6839     7.6673     6.1446 H       
  57 H57           -1.8848     9.0212     7.4327 H       
  58 H58           -0.0881     8.9709     9.1105 H       
  59 H59            3.4555     8.5004     8.2862 H       
  60 H60            2.2971     9.0409     9.5248 H       
  61 H61            4.3833     6.0212     9.8383 H       
  62 H62            4.2989     7.7557    10.2549 H       
  63 H63            0.9582     7.6704    10.5988 H       
  64 H64            0.5893     6.1915     9.6598 H       
  65 H65            1.2237     5.9710    12.2792 H       
  66 H66            1.9266     4.8042    11.1094 H       
  67 H67            3.9283     5.7092    12.1021 H       
  68 H68            3.2040     7.3413    12.2766 H       
  69 H69           -3.6061     8.7804     4.5146 H       
  70 H70           -3.2545     8.1198     6.1296 H       
  71 H71           -2.8549     9.8133     5.7544 H       
  72 H72            6.5608     5.8553     0.8575 H       
  73 H73            6.5488     5.8567    -0.9224 H       
  74 H74            6.7121     7.3894    -0.0323 H       
@<TRIPOS>BOND
   1    1   15 1
   2    1    5 1
   3    2   12 1
   4    2    7 1
   5    2   10 1
   6    3    4 ar
   7    3    5 ar
   8    4    9 1
   9    4    8 ar
  10    5    6 ar
  11    6    7 ar
  12    7    8 ar
  13    8   11 1
  14    9   39 1
  15    9   40 1
  16   10   11 2
  17   10   37 1
  18   12   13 1
  19   12   41 1
  20   12   42 1
  21   13   19 ar
  22   13   14 ar
  23   14   22 ar
  24   14   43 1
  25   15   16 1
  26   15   44 1
  27   15   45 1
  28   16   17 1
  29   16   46 1
  30   16   47 1
  31   17   18 1
  32   17   48 1
  33   17   49 1
  34   18   50 1
  35   18   51 1
  36   18   52 1
  37   19   20 ar
  38   19   53 1
  39   20   21 ar
  40   20   54 1
  41   21   22 ar
  42   21   23 1
  43   22   55 1
  44   23   24 ar
  45   23   25 ar
  46   24   28 ar
  47   24   56 1
  48   25   26 ar
  49   25   35 1
  50   26   27 ar
  51   26   57 1
  52   27   28 ar
  53   27   58 1
  54   28   29 1
  55   29   30 1
  56   29   59 1
  57   29   60 1
  58   30   31 1
  59   30   32 1
  60   31   34 1
  61   31   61 1
  62   31   62 1
  63   32   33 1
  64   32   63 1
  65   32   64 1
  66   33   34 1
  67   33   65 1
  68   33   66 1
  69   34   67 1
  70   34   68 1
  71   35   36 1
  72   36   69 1
  73   36   70 1
  74   36   71 1
  75   37   38 1
  76   38   72 1
  77   38   73 1
  78   38   74 1

#	End of record

