#	Name: ASD01140274
#	Creating user name:	WinNT
#	Creation time:	15. 06. 2019 19:00

#	Modifying user name:	WinNT
#	Modification time:	15. 06. 2019 19:00

#	Program:	/corina/corina34_cracker 3.40 0067  02.08.2006

@<TRIPOS>MOLECULE
ASD01140274
  49   53    0    0    0
SMALL
NO_CHARGES


@<TRIPOS>ATOM
   1 C1             0.0966     1.5709     0.2398 C.ar    
   2 C2             0.0466     0.1745     0.2331 C.ar    
   3 C3             1.2225    -0.5613     0.1543 C.ar    
   4 C4             2.4621     0.0871     0.0811 C.ar    
   5 C5             2.4943     1.4839     0.0650 C.ar    
   6 C6             1.3115     2.2127     0.1561 C.ar    
   7 C7             3.6699    -0.7458     0.0567 C.2     
   8 N8             4.7288    -0.5811    -0.6559 N.2     
   9 C9             4.8513     0.5238    -1.6139 C.3     
  10 C10            4.7484     1.8133    -0.8413 C.2     
  11 N11            3.6914     2.1911    -0.0749 N.pl3   
  12 C12           -1.2156    -0.4976     0.3079 C.1     
  13 C13            4.0056     3.3854     0.4943 C.2     
  14 C14            3.6707    -1.9173     0.9619 C.ar    
  15 C15            5.6726     2.8068    -0.7667 C.2     
  16 N16            5.1818     3.7564     0.0712 N.2     
  17 C17            6.9701     2.8469    -1.4668 C.2     
  18 N18            7.8774     3.8071    -1.3956 N.2     
  19 C19           -2.2504    -1.0487     0.3693 C.1     
  20 C20            3.6914    -3.2090     0.4360 C.ar    
  21 C21            3.6919    -4.2967     1.2845 C.ar    
  22 C22            3.6720    -4.1101     2.6555 C.ar    
  23 C23            3.6514    -2.8333     3.1857 C.ar    
  24 C24            3.6564    -1.7339     2.3472 C.ar    
  25 O25            7.4635     1.9134    -2.2961 O.3     
  26 N26            8.5538     2.2598    -2.6988 N.2     
  27 C27            8.8815     3.4124    -2.1935 C.2     
  28 C28           10.1584     4.1683    -2.4565 C.3     
  29 C29           11.3532     3.3194    -2.0176 C.3     
  30 C30           10.2715     4.4738    -3.9514 C.3     
  31 F31            3.6367    -0.4864     2.8654 F       
  32 H32           -0.8157     2.1451     0.3059 H       
  33 H33            1.1805    -1.6404     0.1499 H       
  34 H34            1.3475     3.2921     0.1612 H       
  35 H35            5.8166     0.4708    -2.1176 H       
  36 H36            4.0473     0.4674    -2.3477 H       
  37 H37            3.3831     3.9363     1.1837 H       
  38 H38           -3.1759    -1.5416     0.4241 H       
  39 H39            3.7066    -3.3574    -0.6336 H       
  40 H40            3.7076    -5.2970     0.8775 H       
  41 H41            3.6722    -4.9658     3.3145 H       
  42 H42            3.6359    -2.6944     4.2567 H       
  43 H43           10.1501     5.1022    -1.8944 H       
  44 H44           11.3615     2.3855    -2.5797 H       
  45 H45           12.2768     3.8661    -2.2079 H       
  46 H46           11.2726     3.1017    -0.9526 H       
  47 H47            9.4203     5.0786    -4.2641 H       
  48 H48           11.1951     5.0206    -4.1417 H       
  49 H49           10.2797     3.5400    -4.5135 H       
@<TRIPOS>BOND
   1    1    2 ar
   2    1    6 ar
   3    1   32 1
   4    2    3 ar
   5    2   12 1
   6    3    4 ar
   7    3   33 1
   8    4    5 ar
   9    4    7 1
  10    5    6 ar
  11    5   11 1
  12    6   34 1
  13    7    8 2
  14    7   14 1
  15    8    9 1
  16    9   10 1
  17    9   35 1
  18    9   36 1
  19   10   11 1
  20   10   15 2
  21   11   13 1
  22   12   19 3
  23   13   16 2
  24   13   37 1
  25   14   20 ar
  26   14   24 ar
  27   15   16 1
  28   15   17 1
  29   17   25 1
  30   17   18 2
  31   18   27 1
  32   19   38 1
  33   20   21 ar
  34   20   39 1
  35   21   22 ar
  36   21   40 1
  37   22   23 ar
  38   22   41 1
  39   23   24 ar
  40   23   42 1
  41   24   31 1
  42   25   26 1
  43   26   27 2
  44   27   28 1
  45   28   29 1
  46   28   30 1
  47   28   43 1
  48   29   44 1
  49   29   45 1
  50   29   46 1
  51   30   47 1
  52   30   48 1
  53   30   49 1

#	End of record

