#	Name: ASD08150660
#	Creating user name:	WinNT
#	Creation time:	15. 06. 2019 21:16

#	Modifying user name:	WinNT
#	Modification time:	15. 06. 2019 21:16

#	Program:	/corina/corina34_cracker 3.40 0067  02.08.2006

@<TRIPOS>MOLECULE
ASD08150660
  68   74    0    0    0
SMALL
NO_CHARGES


@<TRIPOS>ATOM
   1 N1             0.0708     1.4672     0.2825 N.am    
   2 C2             0.2042     0.1481     0.5115 C.2     
   3 C3             1.4707    -0.4674     0.5591 C.2     
   4 C4             2.5961     0.2708     0.3717 C.2     
   5 C5             2.4543     1.7033     0.1223 C.ar    
   6 C6             3.5738     2.5304    -0.0812 C.ar    
   7 N7             3.4362     3.8118    -0.3042 N.ar    
   8 C8             2.2346     4.4067    -0.3517 C.ar    
   9 C9             1.0526     3.6499    -0.1578 C.ar    
  10 C10            1.1667     2.2614     0.0861 C.ar    
  11 C11           -0.1944     4.2805    -0.2085 C.ar    
  12 C12           -0.2605     5.6434    -0.4487 C.ar    
  13 C13            0.9135     6.3857    -0.6397 C.ar    
  14 C14            2.1334     5.7867    -0.5937 C.ar    
  15 O15           -0.7942    -0.5304     0.6824 O.2     
  16 C16           -1.5790     6.3200    -0.5046 C.ar    
  17 C17           -1.2070     2.0331     0.2389 C.ar    
  18 C18           -1.6838     2.7550     1.3273 C.ar    
  19 C19           -2.9430     3.3133     1.2870 C.ar    
  20 C20           -3.7393     3.1542     0.1526 C.ar    
  21 C21           -3.2585     2.4300    -0.9380 C.ar    
  22 C22           -1.9962     1.8779    -0.8948 C.ar    
  23 C23           -5.0940     3.7532     0.1068 C.ar    
  24 C24           -2.7629     5.5662    -0.4663 C.ar    
  25 N25           -3.9400     6.1363    -0.5145 N.ar    
  26 C26           -4.0742     7.4640    -0.6021 C.ar    
  27 C27           -2.9257     8.2941    -0.6452 C.ar    
  28 C28           -1.6518     7.7029    -0.5894 C.ar    
  29 C29           -6.0002     3.5079     1.1393 C.ar    
  30 C30           -7.2585     4.0641     1.0978 C.ar    
  31 C31           -7.6284     4.8748     0.0215 C.ar    
  32 C32           -6.7203     5.1198    -1.0119 C.ar    
  33 C33           -5.4607     4.5670    -0.9660 C.ar    
  34 C34           -8.9785     5.4717    -0.0242 C.2     
  35 O35           -9.7684     5.2579     0.8749 O.2     
  36 N36           -9.3348     6.2535    -1.0626 N.am    
  37 C37           -5.3472     8.0581    -0.6533 C.ar    
  38 C38           -5.4589     9.4115    -0.7428 C.ar    
  39 C39           -4.3287    10.2256    -0.7849 C.ar    
  40 C40           -3.0790     9.6879    -0.7376 C.ar    
  41 C41          -10.6740     6.8457    -1.1079 C.3     
  42 C42           -4.1162     2.2558    -2.1648 C.3     
  43 F43           -3.5023     1.3518    -3.0385 F       
  44 F44           -5.3710     1.7635    -1.7904 F       
  45 F45           -4.2714     3.4903    -2.8045 F       
  46 H46            1.5473    -1.5285     0.7452 H       
  47 H47            3.5720    -0.1903     0.4067 H       
  48 H48            4.5639     2.1000    -0.0524 H       
  49 H49           -1.0992     3.7093    -0.0619 H       
  50 H50            0.8480     7.4475    -0.8261 H       
  51 H51            3.0274     6.3740    -0.7427 H       
  52 H52           -1.0670     2.8779     2.2053 H       
  53 H53           -3.3132     3.8733     2.1330 H       
  54 H54           -1.6217     1.3208    -1.7408 H       
  55 H55           -2.7007     4.4903    -0.3957 H       
  56 H56           -0.7566     8.3064    -0.6196 H       
  57 H57           -5.7142     2.8810     1.9709 H       
  58 H58           -7.9598     3.8738     1.8968 H       
  59 H59           -7.0054     5.7459    -1.8444 H       
  60 H60           -4.7586     4.7563    -1.7645 H       
  61 H61           -8.7046     6.4241    -1.7799 H       
  62 H62           -6.2339     7.4423    -0.6221 H       
  63 H63           -6.4397     9.8620    -0.7821 H       
  64 H64           -4.4457    11.2969    -0.8560 H       
  65 H65           -2.2104    10.3288    -0.7710 H       
  66 H66          -11.4221     6.0529    -1.1063 H       
  67 H67          -10.8189     7.4837    -0.2361 H       
  68 H68          -10.7775     7.4411    -2.0151 H       
@<TRIPOS>BOND
   1    1    2 am
   2    1   10 1
   3    1   17 1
   4    2    3 1
   5    2   15 2
   6    3    4 2
   7    3   46 1
   8    4    5 1
   9    4   47 1
  10    5    6 ar
  11    5   10 ar
  12    6    7 ar
  13    6   48 1
  14    7    8 ar
  15    8    9 ar
  16    8   14 ar
  17    9   10 ar
  18    9   11 ar
  19   11   12 ar
  20   11   49 1
  21   12   13 ar
  22   12   16 1
  23   13   14 ar
  24   13   50 1
  25   14   51 1
  26   16   24 ar
  27   16   28 ar
  28   17   18 ar
  29   17   22 ar
  30   18   19 ar
  31   18   52 1
  32   19   20 ar
  33   19   53 1
  34   20   21 ar
  35   20   23 1
  36   21   22 ar
  37   21   42 1
  38   22   54 1
  39   23   29 ar
  40   23   33 ar
  41   24   25 ar
  42   24   55 1
  43   25   26 ar
  44   26   27 ar
  45   26   37 ar
  46   27   28 ar
  47   27   40 ar
  48   28   56 1
  49   29   30 ar
  50   29   57 1
  51   30   31 ar
  52   30   58 1
  53   31   32 ar
  54   31   34 1
  55   32   33 ar
  56   32   59 1
  57   33   60 1
  58   34   35 2
  59   34   36 am
  60   36   41 1
  61   36   61 1
  62   37   38 ar
  63   37   62 1
  64   38   39 ar
  65   38   63 1
  66   39   40 ar
  67   39   64 1
  68   40   65 1
  69   41   66 1
  70   41   67 1
  71   41   68 1
  72   42   43 1
  73   42   44 1
  74   42   45 1

#	End of record

