#	Name: ASD03330197
#	Creating user name:	WinNT
#	Creation time:	15. 06. 2019 20:36

#	Modifying user name:	WinNT
#	Modification time:	15. 06. 2019 20:36

#	Program:	/corina/corina34_cracker 3.40 0067  02.08.2006

@<TRIPOS>MOLECULE
ASD03330197
  55   59    0    0    0
SMALL
NO_CHARGES


@<TRIPOS>ATOM
   1 C1             0.7063     0.5361     3.2185 C.ar    
   2 C2             0.4066    -0.2612     2.1010 C.ar    
   3 C3             1.4565    -0.7067     1.2605 C.ar    
   4 C4             2.7854    -0.3404     1.5615 C.ar    
   5 C5             3.0375     0.4434     2.6668 C.ar    
   6 C6             1.9979     0.8742     3.4856 C.ar    
   7 N7             3.8358    -0.7685     0.7473 N.am    
   8 C8             4.9549    -0.0246     0.6443 C.2     
   9 N9             6.0098    -0.4876    -0.0551 N.am    
  10 O10            5.0128     1.0642     1.1823 O.2     
  11 C11            7.1305     0.3271    -0.2525 C.ar    
  12 C12            8.3998    -0.2303    -0.2627 C.ar    
  13 C13            9.5121     0.5844    -0.4595 C.ar    
  14 C14            9.3430     1.9554    -0.6450 C.ar    
  15 C15            8.0754     2.5028    -0.6330 C.ar    
  16 C16            6.9709     1.6942    -0.4441 C.ar    
  17 C17           10.8733    -0.0053    -0.4711 C.ar    
  18 N18           11.0252    -1.3122    -0.2931 N.ar    
  19 C19           11.9781     0.8157    -0.6741 C.ar    
  20 C20           13.2461     0.2547    -0.6836 C.ar    
  21 C21           13.3681    -1.1103    -0.4897 C.ar    
  22 C22           12.2217    -1.8762    -0.2972 C.ar    
  23 N23           12.3360    -3.2475    -0.1013 N.3     
  24 C24           11.0107    -3.8673     0.0818 C.3     
  25 C25           10.8664    -4.9640    -0.9942 C.3     
  26 C26           12.3382    -5.2881    -1.3626 C.3     
  27 C27           13.0028    -3.8933    -1.2519 C.3     
  28 C28           -0.9173    -0.6264     1.8008 C.ar    
  29 C29           -1.1718    -1.4002     0.7105 C.ar    
  30 C30           -0.1383    -1.8381    -0.1153 C.ar    
  31 C31            1.1555    -1.5031     0.1444 C.ar    
  32 H32           -0.0877     0.8842     3.8625 H       
  33 H33            4.0533     0.7258     2.9006 H       
  34 H34            2.2192     1.4876     4.3465 H       
  35 H35            3.7600    -1.6013     0.2558 H       
  36 H36            5.9923    -1.3855    -0.4217 H       
  37 H37            8.5258    -1.2932    -0.1182 H       
  38 H38           10.2036     2.5897    -0.7978 H       
  39 H39            7.9465     3.5655    -0.7763 H       
  40 H40            5.9816     2.1273    -0.4355 H       
  41 H41           11.8496     1.8776    -0.8229 H       
  42 H42           14.1200     0.8698    -0.8395 H       
  43 H43           14.3421    -1.5768    -0.4917 H       
  44 H44           10.9430    -4.3112     1.0751 H       
  45 H45           10.2299    -3.1176    -0.0457 H       
  46 H46           10.3691    -5.8431    -0.5843 H       
  47 H47           10.3267    -4.5841    -1.8617 H       
  48 H48           12.7747    -5.9864    -0.6485 H       
  49 H49           12.4101    -5.6754    -2.3789 H       
  50 H50           12.8314    -3.3180    -2.1617 H       
  51 H51           14.0713    -3.9961    -1.0626 H       
  52 H52           -1.7283    -0.2948     2.4323 H       
  53 H53           -2.1899    -1.6792     0.4821 H       
  54 H54           -0.3671    -2.4515    -0.9743 H       
  55 H55            1.9465    -1.8493    -0.5044 H       
@<TRIPOS>BOND
   1    1    2 ar
   2    1    6 ar
   3    1   32 1
   4    2    3 ar
   5    2   28 ar
   6    3    4 ar
   7    3   31 ar
   8    4    5 ar
   9    4    7 1
  10    5    6 ar
  11    5   33 1
  12    6   34 1
  13    7    8 am
  14    7   35 1
  15    8    9 am
  16    8   10 2
  17    9   11 1
  18    9   36 1
  19   11   12 ar
  20   11   16 ar
  21   12   13 ar
  22   12   37 1
  23   13   14 ar
  24   13   17 1
  25   14   15 ar
  26   14   38 1
  27   15   16 ar
  28   15   39 1
  29   16   40 1
  30   17   18 ar
  31   17   19 ar
  32   18   22 ar
  33   19   20 ar
  34   19   41 1
  35   20   21 ar
  36   20   42 1
  37   21   22 ar
  38   21   43 1
  39   22   23 1
  40   23   24 1
  41   23   27 1
  42   24   25 1
  43   24   44 1
  44   24   45 1
  45   25   26 1
  46   25   46 1
  47   25   47 1
  48   26   27 1
  49   26   48 1
  50   26   49 1
  51   27   50 1
  52   27   51 1
  53   28   29 ar
  54   28   52 1
  55   29   30 ar
  56   29   53 1
  57   30   31 ar
  58   30   54 1
  59   31   55 1

#	End of record

