#	Name: ASD01810475
#	Creating user name:	WinNT
#	Creation time:	15. 06. 2019 19:24

#	Modifying user name:	WinNT
#	Modification time:	15. 06. 2019 19:24

#	Program:	/corina/corina34_cracker 3.40 0067  02.08.2006

@<TRIPOS>MOLECULE
ASD01810475
  68   72    0    0    0
SMALL
NO_CHARGES


@<TRIPOS>ATOM
   1 C1             0.0071     1.4725    -0.5286 C.2     
   2 C2             0.0809    -0.0007    -0.5218 C.ar    
   3 C3             1.1675    -0.6618    -1.1156 C.ar    
   4 C4             1.1947    -2.0297    -1.0859 C.ar    
   5 C5             0.1516    -2.7214    -0.4721 C.ar    
   6 N6            -0.8635    -2.0725     0.0816 N.ar    
   7 C7            -0.9258    -0.7572     0.0802 C.ar    
   8 O8             0.8915     2.1232    -1.0511 O.2     
   9 N9            -1.0434     2.0972     0.0395 N.am    
  10 C10           -1.0605     3.4928     0.1326 C.ar    
  11 C11           -2.2629     4.1819     0.0247 C.ar    
  12 C12           -2.2852     5.5608     0.1165 C.ar    
  13 C13           -1.1137     6.2629     0.3157 C.ar    
  14 C14            0.0989     5.5803     0.4253 C.ar    
  15 C15            0.1208     4.1883     0.3380 C.ar    
  16 C16           -1.1437     7.7663     0.4145 C.3     
  17 C17           -3.5465     3.4230    -0.1934 C.3     
  18 C18            1.3555     6.3300     0.6383 C.2     
  19 O19            1.6779     7.2087    -0.1373 O.2     
  20 N20            2.1434     6.0391     1.6923 N.am    
  21 C21            3.3490     6.8326     1.9674 C.3     
  22 C22            3.2918     7.3306     3.4150 C.3     
  23 C23            3.0971     6.1374     4.3533 C.3     
  24 C24            1.7729     5.4421     4.0291 C.3     
  25 C25            1.8098     4.9262     2.5917 C.3     
  26 F26            4.1517     5.2340     4.1836 F       
  27 C27            3.0746     6.6198     5.7809 C.ar    
  28 C28            3.2219     5.7140     6.8163 C.ar    
  29 C29            3.2022     6.1487     8.1253 C.ar    
  30 C30            3.0335     7.5064     8.4042 C.ar    
  31 C31            2.8859     8.4152     7.3544 C.ar    
  32 C32            2.9123     7.9673     6.0499 C.ar    
  33 C33            3.0116     7.9648     9.7607 C.1     
  34 N34            2.9942     8.3284    10.8368 N.1     
  35 N35            0.1757    -4.1055    -0.4407 N.3     
  36 C36           -1.0128    -4.6392     0.2504 C.3     
  37 C37           -1.0892    -5.7218    -0.8353 C.3     
  38 C38           -0.3654    -4.6721    -1.6902 C.3     
  39 H39            1.9637    -0.1036    -1.5855 H       
  40 H40            2.0166    -2.5683    -1.5341 H       
  41 H41           -1.7645    -0.2600     0.5446 H       
  42 H42           -1.7876     1.5790     0.3839 H       
  43 H43           -3.2224     6.0907     0.0316 H       
  44 H44            1.0555     3.6545     0.4261 H       
  45 H45           -1.3683     8.0586     1.4403 H       
  46 H46           -0.1726     8.1688     0.1264 H       
  47 H47           -1.9119     8.1589    -0.2517 H       
  48 H48           -3.9873     3.1700     0.7708 H       
  49 H49           -4.2425     4.0416    -0.7600 H       
  50 H50           -3.3380     2.5086    -0.7488 H       
  51 H51            4.2343     6.2121     1.8291 H       
  52 H52            3.3880     7.6850     1.2890 H       
  53 H53            4.2238     7.8392     3.6617 H       
  54 H54            2.4577     8.0230     3.5289 H       
  55 H55            1.6238     4.6066     4.7131 H       
  56 H56            0.9531     6.1522     4.1373 H       
  57 H57            0.8336     4.5211     2.3252 H       
  58 H58            2.5671     4.1470     2.5054 H       
  59 H59            3.3523     4.6641     6.5991 H       
  60 H60            3.3166     5.4404     8.9326 H       
  61 H61            2.7550     9.4667     7.5631 H       
  62 H62            2.8023     8.6696     5.2368 H       
  63 H63           -0.7970    -5.0342     1.2431 H       
  64 H64           -1.8624    -3.9564     0.2432 H       
  65 H65           -0.4950    -6.6104    -0.6221 H       
  66 H66           -2.1017    -5.9484    -1.1693 H       
  67 H67           -1.0423    -3.9980    -2.2152 H       
  68 H68            0.3990    -5.0949    -2.3420 H       
@<TRIPOS>BOND
   1    1    2 1
   2    1    8 2
   3    1    9 am
   4    2    3 ar
   5    2    7 ar
   6    3    4 ar
   7    3   39 1
   8    4    5 ar
   9    4   40 1
  10    5    6 ar
  11    5   35 1
  12    6    7 ar
  13    7   41 1
  14    9   10 1
  15    9   42 1
  16   10   11 ar
  17   10   15 ar
  18   11   12 ar
  19   11   17 1
  20   12   13 ar
  21   12   43 1
  22   13   14 ar
  23   13   16 1
  24   14   15 ar
  25   14   18 1
  26   15   44 1
  27   16   45 1
  28   16   46 1
  29   16   47 1
  30   17   48 1
  31   17   49 1
  32   17   50 1
  33   18   19 2
  34   18   20 am
  35   20   21 1
  36   20   25 1
  37   21   22 1
  38   21   51 1
  39   21   52 1
  40   22   23 1
  41   22   53 1
  42   22   54 1
  43   23   24 1
  44   23   26 1
  45   23   27 1
  46   24   25 1
  47   24   55 1
  48   24   56 1
  49   25   57 1
  50   25   58 1
  51   27   28 ar
  52   27   32 ar
  53   28   29 ar
  54   28   59 1
  55   29   30 ar
  56   29   60 1
  57   30   31 ar
  58   30   33 1
  59   31   32 ar
  60   31   61 1
  61   32   62 1
  62   33   34 3
  63   35   36 1
  64   35   38 1
  65   36   37 1
  66   36   63 1
  67   36   64 1
  68   37   38 1
  69   37   65 1
  70   37   66 1
  71   38   67 1
  72   38   68 1

#	End of record

