#	Name: ASD04910552
#	Creating user name:	WinNT
#	Creation time:	15. 06. 2019 20:56

#	Modifying user name:	WinNT
#	Modification time:	15. 06. 2019 20:56

#	Program:	/corina/corina34_cracker 3.40 0067  02.08.2006

@<TRIPOS>MOLECULE
ASD04910552
  56   58    0    0    0
SMALL
NO_CHARGES


@<TRIPOS>ATOM
   1 C1            -0.0171     1.4105     0.0098 C.2     
   2 C2             0.0021    -0.0041     0.0020 C.2     
   3 C3             1.1783    -0.6620    -0.0127 C.2     
   4 O4             1.0283     2.0332     0.0032 O.2     
   5 O5            -1.1948     2.0693     0.0190 O.3     
   6 C6             2.3731    -2.6917    -0.0351 C.2     
   7 C7             2.3931    -4.1692    -0.0432 C.ar    
   8 C8             3.6097    -4.8539    -0.0585 C.ar    
   9 C9             3.6213    -6.2333    -0.0655 C.ar    
  10 C10            2.4307    -6.9383    -0.0575 C.ar    
  11 C11            1.2214    -6.2660    -0.0427 C.ar    
  12 C12            1.1955    -4.8868    -0.0298 C.ar    
  13 O13            3.4172    -2.0698    -0.0417 O.2     
  14 N14            1.1969    -2.0337    -0.0203 N.am    
  15 C15            2.4511    -8.4451    -0.0652 C.3     
  16 C16            2.2214    -8.9656     1.3551 C.3     
  17 C17            2.3658   -10.4887     1.3697 C.3     
  18 C18            2.1361   -11.0092     2.7900 C.3     
  19 N19            1.3912    -8.9433    -0.9453 N.pl3   
  20 C20            2.6226   -10.9964    -1.2894 C.ar    
  21 C21            1.5069   -10.2067    -1.5334 C.ar    
  22 C22            0.5039   -10.6896    -2.3715 C.ar    
  23 C23            0.6610   -11.9455    -2.9310 C.ar    
  24 C24            1.8049   -12.6780    -2.6408 C.ar    
  25 N25            2.7377   -12.1885    -1.8404 N.ar    
  26 N26            1.9728   -13.9492    -3.2019 N.pl3   
  27 N27            1.0770   -14.5963    -4.0630 N.2     
  28 C28            1.5791   -15.7636    -4.3748 C.2     
  29 C29            2.8104   -15.9018    -3.7247 C.2     
  30 C30            3.0359   -14.7730    -3.0134 C.2     
  31 C31            3.7267   -17.0954    -3.8067 C.3     
  32 F32            3.1586   -18.0629    -4.6424 F       
  33 F33            4.9637   -16.6989    -4.3262 F       
  34 F34            3.9086   -17.6324    -2.5278 F       
  35 H35           -0.9258    -0.5567     0.0079 H       
  36 H36            2.1061    -0.1093    -0.0186 H       
  37 H37           -1.1067     3.0323     0.0238 H       
  38 H38            4.5397    -4.3048    -0.0651 H       
  39 H39            4.5617    -6.7642    -0.0777 H       
  40 H40            0.2957    -6.8223    -0.0369 H       
  41 H41            0.2510    -4.3633    -0.0138 H       
  42 H42            0.3635    -2.5301    -0.0150 H       
  43 H43            3.4182    -8.7935    -0.4279 H       
  44 H44            2.9574    -8.5244     2.0272 H       
  45 H45            1.2189    -8.6925     1.6844 H       
  46 H46            1.6298   -10.9299     0.6975 H       
  47 H47            3.3683   -10.7618     1.0403 H       
  48 H48            2.8721   -10.5680     3.4621 H       
  49 H49            1.1336   -10.7361     3.1193 H       
  50 H50            2.2390   -12.0943     2.8003 H       
  51 H51            0.6090    -8.3969    -1.1200 H       
  52 H52            3.4068   -10.6281    -0.6447 H       
  53 H53           -0.3754   -10.0979    -2.5793 H       
  54 H54           -0.0967   -12.3512    -3.5849 H       
  55 H55            1.1212   -16.4958    -5.0234 H       
  56 H56            3.9031   -14.5658    -2.4039 H       
@<TRIPOS>BOND
   1    1    2 1
   2    1    4 2
   3    1    5 1
   4    2    3 2
   5    2   35 1
   6    3   14 1
   7    3   36 1
   8    5   37 1
   9    6    7 1
  10    6   13 2
  11    6   14 am
  12    7    8 ar
  13    7   12 ar
  14    8    9 ar
  15    8   38 1
  16    9   10 ar
  17    9   39 1
  18   10   11 ar
  19   10   15 1
  20   11   12 ar
  21   11   40 1
  22   12   41 1
  23   14   42 1
  24   15   16 1
  25   15   19 1
  26   15   43 1
  27   16   17 1
  28   16   44 1
  29   16   45 1
  30   17   18 1
  31   17   46 1
  32   17   47 1
  33   18   48 1
  34   18   49 1
  35   18   50 1
  36   19   21 1
  37   19   51 1
  38   20   21 ar
  39   20   25 ar
  40   20   52 1
  41   21   22 ar
  42   22   23 ar
  43   22   53 1
  44   23   24 ar
  45   23   54 1
  46   24   25 ar
  47   24   26 1
  48   26   27 1
  49   26   30 1
  50   27   28 2
  51   28   29 1
  52   28   55 1
  53   29   30 2
  54   29   31 1
  55   30   56 1
  56   31   32 1
  57   31   33 1
  58   31   34 1

#	End of record

