#	Name: ASD02198206
#	Creating user name:	WinNT
#	Creation time:	15. 06. 2019 20:19

#	Modifying user name:	WinNT
#	Modification time:	15. 06. 2019 20:19

#	Program:	/corina/corina34_cracker 3.40 0067  02.08.2006

@<TRIPOS>MOLECULE
ASD02198206
  36   38    0    0    0
SMALL
NO_CHARGES


@<TRIPOS>ATOM
   1 C1            -0.0046     1.3832     0.2264 C.2     
   2 C2             0.0042     0.0098     0.1097 C.2     
   3 C3            -1.1901    -0.7800     0.0923 C.1     
   4 S4             1.5831     2.0043     0.2133 S.3     
   5 C5             2.2794     0.4003     0.0486 C.2     
   6 C6             1.2812    -0.5408     0.0102 C.2     
   7 C7             3.6596     0.1209    -0.0322 C.2     
   8 C8             4.6305     1.2258    -0.1464 C.2     
   9 O9             4.0505    -1.0344    -0.0078 O.2     
  10 N10            1.5187    -1.9019    -0.1145 N.pl3   
  11 N11           -1.1419     2.1502     0.3332 N.pl3   
  12 N12           -2.1376    -1.4066     0.0785 N.1     
  13 C13           -1.0348     3.6064     0.4526 C.3     
  14 C14           -2.3244     4.2733    -0.0571 C.3     
  15 C15           -2.9169     5.0546     1.1339 C.3     
  16 C16           -1.7018     5.3183     2.0574 C.3     
  17 C17           -0.8886     4.0056     1.9355 C.3     
  18 C18            6.0596     1.0405    -0.0641 C.2     
  19 C19            6.7399     2.1740    -0.1942 C.2     
  20 C20            4.2709     2.5208    -0.3455 C.2     
  21 S21            5.6450     3.5262    -0.4249 S.3     
  22 H22            2.4287    -2.2314    -0.1797 H       
  23 H23            0.7748    -2.5240    -0.1364 H       
  24 H24           -2.0146     1.7268     0.3293 H       
  25 H25           -0.1782     3.9655    -0.1177 H       
  26 H26           -2.0936     4.9568    -0.8742 H       
  27 H27           -3.0300     3.5136    -0.3933 H       
  28 H28           -3.3500     5.9958     0.7952 H       
  29 H29           -3.6652     4.4533     1.6503 H       
  30 H30           -1.1206     6.1675     1.6981 H       
  31 H31           -2.0257     5.4779     3.0859 H       
  32 H32           -1.3093     3.2349     2.5814 H       
  33 H33            0.1585     4.1813     2.1819 H       
  34 H34            6.5276     0.0791     0.0876 H       
  35 H35            7.8166     2.2526    -0.1622 H       
  36 H36            3.2520     2.8668    -0.4385 H       
@<TRIPOS>BOND
   1    1    2 2
   2    1    4 1
   3    1   11 1
   4    2    3 1
   5    2    6 1
   6    3   12 3
   7    4    5 1
   8    5    6 2
   9    5    7 1
  10    6   10 1
  11    7    8 1
  12    7    9 2
  13    8   18 1
  14    8   20 2
  15   10   22 1
  16   10   23 1
  17   11   13 1
  18   11   24 1
  19   13   14 1
  20   13   17 1
  21   13   25 1
  22   14   15 1
  23   14   26 1
  24   14   27 1
  25   15   16 1
  26   15   28 1
  27   15   29 1
  28   16   17 1
  29   16   30 1
  30   16   31 1
  31   17   32 1
  32   17   33 1
  33   18   19 2
  34   18   34 1
  35   19   21 1
  36   19   35 1
  37   20   21 1
  38   20   36 1

#	End of record

