#	Name: ASD01911395
#	Creating user name:	WinNT
#	Creation time:	15. 06. 2019 19:57

#	Modifying user name:	WinNT
#	Modification time:	15. 06. 2019 19:57

#	Program:	/corina/corina34_cracker 3.40 0067  02.08.2006

@<TRIPOS>MOLECULE
ASD01911395
  38   40    0    0    0
SMALL
NO_CHARGES


@<TRIPOS>ATOM
   1 N1            -0.0079     1.4083    -0.0033 N.2     
   2 N2            -0.0062     0.0084    -0.0446 N.pl3   
   3 C3             1.2405     1.8248     0.0377 C.2     
   4 C4             2.0818     0.6996     0.0238 C.2     
   5 C5             1.2913    -0.4109    -0.0272 C.2     
   6 C6             1.7570    -1.8153    -0.0584 C.ar    
   7 C7             1.6832     3.2407     0.0892 C.ar    
   8 C8             0.7418     4.2677     0.0980 C.ar    
   9 C9            -1.1897    -0.8535    -0.0968 C.3     
  10 C10           -1.6277    -1.0191    -1.5292 C.2     
  11 O11           -2.6994    -1.7731    -1.8204 O.3     
  12 O12           -1.0143    -0.4732    -2.4155 O.2     
  13 C13            0.9325    -2.8146    -0.5753 C.ar    
  14 C14            1.1590     5.5825     0.1459 C.ar    
  15 C15            2.5089     5.8813     0.1853 C.ar    
  16 C16            3.4478     4.8657     0.1763 C.ar    
  17 C17            3.0415     3.5472     0.1348 C.ar    
  18 C18            1.3715    -4.1222    -0.6026 C.ar    
  19 C19            2.6288    -4.4436    -0.1173 C.ar    
  20 C20            3.4516    -3.4544     0.3977 C.ar    
  21 C21            3.0245    -2.1433     0.4238 C.ar    
  22 F22            3.0540    -5.7256    -0.1458 F       
  23 C23            4.8176    -3.8112     0.9249 C.3     
  24 H24            3.1615     0.7118     0.0492 H       
  25 H25           -0.3125     4.0354     0.0670 H       
  26 H26           -0.9474    -1.8293     0.3242 H       
  27 H27           -1.9957    -0.3992     0.4794 H       
  28 H28           -2.9419    -1.8496    -2.7533 H       
  29 H29           -0.0480    -2.5652    -0.9532 H       
  30 H30            0.4300     6.3793     0.1524 H       
  31 H31            2.8310     6.9115     0.2227 H       
  32 H32            4.5006     5.1045     0.2064 H       
  33 H33            3.7754     2.7549     0.1278 H       
  34 H34            0.7339    -4.8967    -1.0026 H       
  35 H35            3.6665    -1.3731     0.8253 H       
  36 H36            5.5474    -3.7440     0.1180 H       
  37 H37            5.0918    -3.1194     1.7213 H       
  38 H38            4.8016    -4.8282     1.3166 H       
@<TRIPOS>BOND
   1    1    2 1
   2    1    3 2
   3    2    9 1
   4    2    5 1
   5    3    4 1
   6    3    7 1
   7    4    5 2
   8    4   24 1
   9    5    6 1
  10    6   13 ar
  11    6   21 ar
  12    7    8 ar
  13    7   17 ar
  14    8   14 ar
  15    8   25 1
  16    9   10 1
  17    9   26 1
  18    9   27 1
  19   10   11 1
  20   10   12 2
  21   11   28 1
  22   13   18 ar
  23   13   29 1
  24   14   15 ar
  25   14   30 1
  26   15   16 ar
  27   15   31 1
  28   16   17 ar
  29   16   32 1
  30   17   33 1
  31   18   19 ar
  32   18   34 1
  33   19   20 ar
  34   19   22 1
  35   20   21 ar
  36   20   23 1
  37   21   35 1
  38   23   36 1
  39   23   37 1
  40   23   38 1

#	End of record

