#	Name: ASD01810638
#	Creating user name:	WinNT
#	Creation time:	15. 06. 2019 19:25

#	Modifying user name:	WinNT
#	Modification time:	15. 06. 2019 19:25

#	Program:	/corina/corina34_cracker 3.40 0067  02.08.2006

@<TRIPOS>MOLECULE
ASD01810638
  26   26    0    0    0
SMALL
NO_CHARGES


@<TRIPOS>ATOM
   1 C1             0.0056     1.4691     0.1349 C.2     
   2 C2             0.0143     0.0046     0.1232 C.2     
   3 C3             1.2773    -0.7174    -0.0140 C.2     
   4 O4             1.0488     2.0840     0.0304 O.2     
   5 O5            -1.1615     2.1361     0.2560 O.3     
   6 O6             2.3102    -0.1046    -0.2135 O.2     
   7 C7             1.3008    -2.1905     0.0894 C.ar    
   8 C8             0.8444    -2.9788    -0.9756 C.ar    
   9 C9             0.8707    -4.3565    -0.8699 C.ar    
  10 C10            1.3453    -4.9554     0.2832 C.ar    
  11 C11            1.7979    -4.1810     1.3395 C.ar    
  12 C12            1.7838    -2.8062     1.2479 C.ar    
  13 F13            0.3800    -2.3940    -2.1015 F       
  14 N14           -1.0586    -0.6277     0.2307 N.1     
  15 N15           -2.0234    -1.1962     0.3274 N.pl3   
  16 C16           -1.0957     3.5635     0.2600 C.3     
  17 C17           -2.5060     4.1388     0.4047 C.3     
  18 H18            0.5196    -4.9667    -1.6889 H       
  19 H19            1.3629    -6.0325     0.3608 H       
  20 H20            2.1668    -4.6568     2.2361 H       
  21 H21            2.1410    -2.2053     2.0712 H       
  22 H22           -0.4799     3.8965     1.0955 H       
  23 H23           -0.6564     3.9096    -0.6757 H       
  24 H24           -3.1217     3.8058    -0.4308 H       
  25 H25           -2.9453     3.7928     1.3403 H       
  26 H26           -2.4557     5.2276     0.4077 H       
@<TRIPOS>BOND
   1    1    2 1
   2    1    4 2
   3    1    5 1
   4    2    3 1
   5    2   14 2
   6    3    6 2
   7    3    7 1
   8    5   16 1
   9    7    8 ar
  10    7   12 ar
  11    8    9 ar
  12    8   13 1
  13    9   10 ar
  14    9   18 1
  15   10   11 ar
  16   10   19 1
  17   11   12 ar
  18   11   20 1
  19   12   21 1
  20   14   15 2
  21   16   17 1
  22   16   22 1
  23   16   23 1
  24   17   24 1
  25   17   25 1
  26   17   26 1

#	End of record

