#	Name: ASD01903174
#	Creating user name:	WinNT
#	Creation time:	15. 06. 2019 19:54

#	Modifying user name:	WinNT
#	Modification time:	15. 06. 2019 19:54

#	Program:	/corina/corina34_cracker 3.40 0067  02.08.2006

@<TRIPOS>MOLECULE
ASD01903174
  39   41    0    0    0
SMALL
NO_CHARGES


@<TRIPOS>ATOM
   1 C1            -0.5506     1.3320     0.1528 C.ar    
   2 C2            -0.3711    -0.0374     0.1348 C.ar    
   3 C3             0.9091    -0.5675     0.0409 C.ar    
   4 C4             2.0060     0.2828    -0.0346 C.ar    
   5 C5             1.8190     1.6521    -0.0160 C.ar    
   6 C6             0.5426     2.1756     0.0776 C.ar    
   7 Cl7            3.6086    -0.3741    -0.1515 Cl      
   8 N8             1.0941    -1.9525     0.0228 N.am    
   9 S9            -0.0137    -2.9261    -0.7304 S.o2    
  10 C10           -0.0599    -2.4489    -2.4259 C.ar    
  11 O11            0.5213    -4.2421    -0.6984 O.2     
  12 O12           -1.2814    -2.5889    -0.1840 O.2     
  13 C13            0.7863    -3.0547    -3.3365 C.ar    
  14 C14            0.7523    -2.6833    -4.6662 C.ar    
  15 C15           -0.1332    -1.7001    -5.0887 C.ar    
  16 C16           -0.9818    -1.0936    -4.1715 C.ar    
  17 C17           -0.9464    -1.4734    -2.8442 C.ar    
  18 N18           -0.1698    -1.3214    -6.4342 N.am    
  19 C19           -0.4803    -0.0534    -6.7691 C.2     
  20 C20           -0.6317     0.3202    -8.1943 C.ar    
  21 C21           -0.9528     1.6313    -8.5431 C.ar    
  22 N22           -1.0868     1.9597    -9.8156 N.ar    
  23 C23           -0.9169     1.0476   -10.7561 C.ar    
  24 C24           -0.5977    -0.2584   -10.4124 C.ar    
  25 N25           -0.4563    -0.5931    -9.1457 N.ar    
  26 O26           -0.6361     0.7835    -5.9017 O.2     
  27 H27           -1.5463     1.7445     0.2213 H       
  28 H28           -1.2255    -0.6953     0.1939 H       
  29 H29            2.6705     2.3138    -0.0746 H       
  30 H30            0.3991     3.2460     0.0919 H       
  31 H31            1.8714    -2.3437     0.4514 H       
  32 H32            1.4748    -3.8189    -3.0073 H       
  33 H33            1.4137    -3.1566    -5.3768 H       
  34 H34           -1.6714    -0.3287    -4.4967 H       
  35 H35           -1.6062    -1.0024    -2.1306 H       
  36 H36            0.0282    -1.9713    -7.1265 H       
  37 H37           -1.0921     2.3770    -7.7743 H       
  38 H38           -1.0272     1.3191   -11.7956 H       
  39 H39           -0.4601    -1.0007   -11.1846 H       
@<TRIPOS>BOND
   1    1    2 ar
   2    1    6 ar
   3    1   27 1
   4    2    3 ar
   5    2   28 1
   6    3    4 ar
   7    3    8 1
   8    4    5 ar
   9    4    7 1
  10    5    6 ar
  11    5   29 1
  12    6   30 1
  13    8    9 am
  14    8   31 1
  15    9   10 1
  16    9   11 2
  17    9   12 2
  18   10   13 ar
  19   10   17 ar
  20   13   14 ar
  21   13   32 1
  22   14   15 ar
  23   14   33 1
  24   15   16 ar
  25   15   18 1
  26   16   17 ar
  27   16   34 1
  28   17   35 1
  29   18   19 am
  30   18   36 1
  31   19   20 1
  32   19   26 2
  33   20   21 ar
  34   20   25 ar
  35   21   22 ar
  36   21   37 1
  37   22   23 ar
  38   23   24 ar
  39   23   38 1
  40   24   25 ar
  41   24   39 1

#	End of record

