#	Name: ASD08151102
#	Creating user name:	WinNT
#	Creation time:	15. 06. 2019 21:17

#	Modifying user name:	WinNT
#	Modification time:	15. 06. 2019 21:17

#	Program:	/corina/corina34_cracker 3.40 0067  02.08.2006

@<TRIPOS>MOLECULE
ASD08151102
  34   36    0    0    0
SMALL
NO_CHARGES


@<TRIPOS>ATOM
   1 C1            -0.0187     1.5258     0.0104 C.3     
   2 C2             0.0021    -0.0041     0.0020 C.3     
   3 N3             4.1889     2.6276     2.2677 N.ar    
   4 N4             5.3933     3.0747     2.2427 N.ar    
   5 C5             5.9843     3.5088     1.1384 C.ar    
   6 C6             5.3217     3.5014    -0.0575 C.ar    
   7 C7             4.0000     3.0174    -0.0654 C.ar    
   8 C8             3.2318     2.9663    -1.2390 C.ar    
   9 C9             1.9547     2.4882    -1.1942 C.ar    
  10 C10            1.3951     2.0474    -0.0003 C.ar    
  11 C11            2.1192     2.0817     1.1784 C.ar    
  12 C12            3.4460     2.5725     1.1618 C.ar    
  13 C13            1.5116     1.6091     2.4441 C.ar    
  14 C14            2.0273     0.4868     3.0916 C.ar    
  15 C15            1.4563     0.0512     4.2723 C.ar    
  16 C16            0.3736     0.7278     4.8114 C.ar    
  17 C17           -0.1404     1.8411     4.1722 C.ar    
  18 C18            0.4256     2.2883     2.9955 C.ar    
  19 F19            1.9539    -1.0358     4.9016 F       
  20 Cl20           3.9046     3.5111    -2.7437 Cl      
  21 N21           -0.7292     2.0124    -1.1797 N.3     
  22 H22           -0.5289     1.8773     0.9072 H       
  23 H23            0.5293    -0.3651     0.8851 H       
  24 H24           -1.0205    -0.3814     0.0098 H       
  25 H25            0.5123    -0.3556    -0.8948 H       
  26 H26            7.0002     3.8727     1.1839 H       
  27 H27            5.7947     3.8538    -0.9622 H       
  28 H28            1.3689     2.4520    -2.1008 H       
  29 H29            2.8706    -0.0409     2.6712 H       
  30 H30           -0.0705     0.3842     5.7339 H       
  31 H31           -0.9845     2.3642     4.5967 H       
  32 H32            0.0255     3.1606     2.5003 H       
  33 H33           -0.8128     3.0178    -1.1650 H       
  34 H34           -0.2753     1.6996    -2.0248 H       
@<TRIPOS>BOND
   1    1    2 1
   2    1   10 1
   3    1   21 1
   4    1   22 1
   5    2   23 1
   6    2   24 1
   7    2   25 1
   8    3    4 ar
   9    3   12 ar
  10    4    5 ar
  11    5    6 ar
  12    5   26 1
  13    6    7 ar
  14    6   27 1
  15    7    8 ar
  16    7   12 ar
  17    8    9 ar
  18    8   20 1
  19    9   10 ar
  20    9   28 1
  21   10   11 ar
  22   11   12 ar
  23   11   13 1
  24   13   14 ar
  25   13   18 ar
  26   14   15 ar
  27   14   29 1
  28   15   16 ar
  29   15   19 1
  30   16   17 ar
  31   16   30 1
  32   17   18 ar
  33   17   31 1
  34   18   32 1
  35   21   33 1
  36   21   34 1

#	End of record

