#	Name: ASD01814511
#	Creating user name:	WinNT
#	Creation time:	15. 06. 2019 19:32

#	Modifying user name:	WinNT
#	Modification time:	15. 06. 2019 19:32

#	Program:	/corina/corina34_cracker 3.40 0067  02.08.2006

@<TRIPOS>MOLECULE
ASD01814511
  51   56    0    0    0
SMALL
NO_CHARGES


@<TRIPOS>ATOM
   1 C1            -0.0167     1.3807     0.0096 C.2     
   2 C2             0.0021    -0.0041     0.0020 C.2     
   3 N3             1.1953     2.0643     0.0017 N.pl3   
   4 N4             2.3427     1.5022    -0.0122 N.2     
   5 C5             2.5067     0.2039    -0.0208 C.2     
   6 C6             1.3109    -0.6710    -0.0150 C.2     
   7 C7             1.1528     3.5287     0.0095 C.3     
   8 C8             1.1516     4.0237     1.4329 C.ar    
   9 C9             2.3488     4.2851     2.0736 C.ar    
  10 C10            2.3508     4.7384     3.3782 C.ar    
  11 C11            1.1492     4.9320     4.0463 C.ar    
  12 C12           -0.0512     4.6691     3.4002 C.ar    
  13 C13           -0.0470     4.2209     2.0938 C.ar    
  14 N14            1.1481     5.3915     5.3707 N.pl3   
  15 C15            3.6458    -0.7130    -0.0374 C.2     
  16 N16            3.1269    -1.9599    -0.0395 N.am    
  17 N17            1.7305    -1.9059    -0.0261 N.2     
  18 O18            4.8286    -0.4117    -0.0473 O.2     
  19 C19            3.9161    -3.1941    -0.0552 C.3     
  20 C20            3.5967    -4.0217     1.1935 C.3     
  21 C21            4.3679    -5.3435     1.1275 C.3     
  22 C22            3.9996    -6.0763    -0.1651 C.3     
  23 O23            4.2931    -5.2395    -1.2857 O.3     
  24 C24            3.5652    -4.0099    -1.3022 C.3     
  25 S25           -1.6405    -0.6242     0.0150 S.3     
  26 C26           -2.2972     1.0047     0.0302 C.2     
  27 C27           -1.3155     1.8976     0.0305 C.2     
  28 C28            0.0547     5.6211     6.1325 C.2     
  29 C29            0.4793     6.0544     7.3421 C.2     
  30 C30            1.8778     6.0912     7.3199 C.2     
  31 N31            2.2796     5.6885     6.1413 N.2     
  32 H32            2.0271     3.9203    -0.5106 H       
  33 H33            0.2479     3.8686    -0.4942 H       
  34 H34            3.2831     4.1343     1.5534 H       
  35 H35            3.2862     4.9417     3.8784 H       
  36 H36           -0.9874     4.8184     3.9175 H       
  37 H37           -0.9805     4.0162     1.5906 H       
  38 H38            4.9778    -2.9474    -0.0670 H       
  39 H39            3.8961    -3.4689     2.0839 H       
  40 H40            2.5266    -4.2255     1.2320 H       
  41 H41            5.4389    -5.1413     1.1391 H       
  42 H42            4.1039    -5.9625     1.9850 H       
  43 H43            4.5776    -6.9976    -0.2381 H       
  44 H44            2.9358    -6.3141    -0.1577 H       
  45 H45            2.4958    -4.2206    -1.3097 H       
  46 H46            3.8303    -3.4425    -2.1943 H       
  47 H47           -3.3500     1.2453     0.0414 H       
  48 H48           -1.5085     2.9602     0.0394 H       
  49 H49           -0.9729     5.4839     5.8297 H       
  50 H50           -0.1503     6.3241     8.1771 H       
  51 H51            2.5160     6.3952     8.1365 H       
@<TRIPOS>BOND
   1    1    2 2
   2    1    3 1
   3    1   27 1
   4    2   25 1
   5    2    6 1
   6    3    4 1
   7    3    7 1
   8    4    5 2
   9    5    6 1
  10    5   15 1
  11    6   17 2
  12    7    8 1
  13    7   32 1
  14    7   33 1
  15    8    9 ar
  16    8   13 ar
  17    9   10 ar
  18    9   34 1
  19   10   11 ar
  20   10   35 1
  21   11   12 ar
  22   11   14 1
  23   12   13 ar
  24   12   36 1
  25   13   37 1
  26   14   28 1
  27   14   31 1
  28   15   16 am
  29   15   18 2
  30   16   17 1
  31   16   19 1
  32   19   20 1
  33   19   24 1
  34   19   38 1
  35   20   21 1
  36   20   39 1
  37   20   40 1
  38   21   22 1
  39   21   41 1
  40   21   42 1
  41   22   23 1
  42   22   43 1
  43   22   44 1
  44   23   24 1
  45   24   45 1
  46   24   46 1
  47   25   26 1
  48   26   27 2
  49   26   47 1
  50   27   48 1
  51   28   29 2
  52   28   49 1
  53   29   30 1
  54   29   50 1
  55   30   31 2
  56   30   51 1

#	End of record

