#	Name: ASD09116468
#	Creating user name:	WinNT
#	Creation time:	15. 06. 2019 21:21

#	Modifying user name:	WinNT
#	Modification time:	15. 06. 2019 21:21

#	Program:	/corina/corina34_cracker 3.40 0067  02.08.2006

@<TRIPOS>MOLECULE
ASD09116468
  86   92    0    0    0
SMALL
NO_CHARGES


@<TRIPOS>ATOM
   1 N1            -0.0590     1.5293    -0.5339 N.2     
   2 N2            -0.0823     0.2529    -1.1188 N.pl3   
   3 C3             1.1947     1.9132    -0.5026 C.2     
   4 N4             1.9587     0.9515    -1.0340 N.2     
   5 C5             1.2027    -0.0574    -1.4107 C.2     
   6 N6             1.6427    -1.2271    -2.0006 N.pl3   
   7 C7            -1.2078    -0.5393    -1.3528 C.ar    
   8 N8             1.6572     3.1284     0.0026 N.pl3   
   9 C9             3.0289     3.3740     0.0833 C.ar    
  10 C10            3.5085     4.6748    -0.0243 C.ar    
  11 C11            3.9127     2.3179     0.2768 C.ar    
  12 C12            5.2674     2.5572     0.3569 C.ar    
  13 C13            5.7523     3.8615     0.2435 C.ar    
  14 C14            4.8621     4.9203     0.0545 C.ar    
  15 N15           -1.1870    -1.4527    -2.3119 N.ar    
  16 N16           -2.1988    -2.2009    -2.5744 N.ar    
  17 C17           -3.3307    -2.1001    -1.8961 C.ar    
  18 C18           -3.4379    -1.1779    -0.8512 C.ar    
  19 C19           -2.3542    -0.3726    -0.5717 C.ar    
  20 C20           -4.5158    -2.9230    -2.2318 C.ar    
  21 C21           -5.7521    -2.2939    -2.3864 C.ar    
  22 C22           -5.8386    -0.7972    -2.2642 C.3     
  23 C23           -5.7904    -0.3540    -0.8045 C.3     
  24 C24           -4.7025    -1.1091    -0.0456 C.3     
  25 C25           -4.4119    -4.3007    -2.3886 C.ar    
  26 C26           -5.5404    -5.0429    -2.6789 C.ar    
  27 C27           -6.7673    -4.4182    -2.8103 C.ar    
  28 C28           -6.8734    -3.0459    -2.6637 C.ar    
  29 C29            7.2042     4.1214     0.3294 C.2     
  30 C30            7.6634     5.3609     0.2215 C.2     
  31 C31            9.1443     5.6260     0.3091 C.3     
  32 N32            9.5824     6.3577    -0.8871 N.3     
  33 C33           10.9607     6.8404    -0.7333 C.3     
  34 C34           11.3317     7.7181    -1.9309 C.3     
  35 C35           11.1984     6.8996    -3.2181 C.3     
  36 C36            9.7667     6.3683    -3.3297 C.3     
  37 C37            9.4410     5.5297    -2.0916 C.3     
  38 N38           11.4969     7.7532    -4.3757 N.3     
  39 C39           11.4945     6.9722    -5.6205 C.3     
  40 C40           11.7300     7.9088    -6.8078 C.3     
  41 N41           13.0104     8.6079    -6.6305 N.3     
  42 C42           13.0128     9.3889    -5.3857 C.3     
  43 C43           12.7773     8.4523    -4.1984 C.3     
  44 C44           13.3089     9.4615    -7.7882 C.3     
  45 H45            2.5885    -1.3582    -2.1714 H       
  46 H46            1.0057    -1.9170    -2.2438 H       
  47 H47            1.0256     3.8028     0.2979 H       
  48 H48            2.8194     5.4935    -0.1701 H       
  49 H49            3.5370     1.3092     0.3648 H       
  50 H50            5.9532     1.7366     0.5075 H       
  51 H51            5.2344     5.9302    -0.0339 H       
  52 H52           -2.3927     0.3650     0.2163 H       
  53 H53           -5.0039    -0.3467    -2.8013 H       
  54 H54           -6.7733    -0.4565    -2.7096 H       
  55 H55           -5.5823     0.7151    -0.7607 H       
  56 H56           -6.7557    -0.5503    -0.3378 H       
  57 H57           -5.0489    -2.1210     0.1650 H       
  58 H58           -4.5007    -0.5972     0.8953 H       
  59 H59           -3.4537    -4.7881    -2.2843 H       
  60 H60           -5.4643    -6.1129    -2.8038 H       
  61 H61           -7.6476    -5.0044    -3.0288 H       
  62 H62           -7.8347    -2.5645    -2.7664 H       
  63 H63            7.8915     3.3021     0.4800 H       
  64 H64            6.9761     6.1802     0.0709 H       
  65 H65            9.3548     6.2221     1.1970 H       
  66 H66            9.6799     4.6788     0.3720 H       
  67 H67           11.0408     7.4243     0.1836 H       
  68 H68           11.6399     5.9895    -0.6823 H       
  69 H69           10.6616     8.5766    -1.9744 H       
  70 H70           12.3601     8.0635    -1.8241 H       
  71 H71           11.8964     6.0629    -3.1917 H       
  72 H72            9.0718     7.2055    -3.3952 H       
  73 H73            9.6768     5.7493    -4.2224 H       
  74 H74           10.1274     4.6850    -2.0343 H       
  75 H75            8.4173     5.1617    -2.1612 H       
  76 H76           12.2881     6.2259    -5.5831 H       
  77 H77           10.5317     6.4742    -5.7356 H       
  78 H78           11.7575     7.3277    -7.7296 H       
  79 H79           10.9218     8.6383    -6.8614 H       
  80 H80           13.9755     9.8869    -5.2707 H       
  81 H81           12.2192    10.1352    -5.4231 H       
  82 H82           12.7498     9.0334    -3.2766 H       
  83 H83           13.5855     7.7228    -4.1448 H       
  84 H84           12.5191    10.2034    -7.9058 H       
  85 H85           14.2617     9.9670    -7.6308 H       
  86 H86           13.3674     8.8475    -8.6869 H       
@<TRIPOS>BOND
   1    1    2 1
   2    1    3 2
   3    2    7 1
   4    2    5 1
   5    3    4 1
   6    3    8 1
   7    4    5 2
   8    5    6 1
   9    6   45 1
  10    6   46 1
  11    7   15 ar
  12    7   19 ar
  13    8    9 1
  14    8   47 1
  15    9   10 ar
  16    9   11 ar
  17   10   14 ar
  18   10   48 1
  19   11   12 ar
  20   11   49 1
  21   12   13 ar
  22   12   50 1
  23   13   14 ar
  24   13   29 1
  25   14   51 1
  26   15   16 ar
  27   16   17 ar
  28   17   18 ar
  29   17   20 1
  30   18   19 ar
  31   18   24 1
  32   19   52 1
  33   20   21 ar
  34   20   25 ar
  35   21   22 1
  36   21   28 ar
  37   22   23 1
  38   22   53 1
  39   22   54 1
  40   23   24 1
  41   23   55 1
  42   23   56 1
  43   24   57 1
  44   24   58 1
  45   25   26 ar
  46   25   59 1
  47   26   27 ar
  48   26   60 1
  49   27   28 ar
  50   27   61 1
  51   28   62 1
  52   29   30 2
  53   29   63 1
  54   30   31 1
  55   30   64 1
  56   31   32 1
  57   31   65 1
  58   31   66 1
  59   32   33 1
  60   32   37 1
  61   33   34 1
  62   33   67 1
  63   33   68 1
  64   34   35 1
  65   34   69 1
  66   34   70 1
  67   35   36 1
  68   35   38 1
  69   35   71 1
  70   36   37 1
  71   36   72 1
  72   36   73 1
  73   37   74 1
  74   37   75 1
  75   38   39 1
  76   38   43 1
  77   39   40 1
  78   39   76 1
  79   39   77 1
  80   40   41 1
  81   40   78 1
  82   40   79 1
  83   41   42 1
  84   41   44 1
  85   42   43 1
  86   42   80 1
  87   42   81 1
  88   43   82 1
  89   43   83 1
  90   44   84 1
  91   44   85 1
  92   44   86 1

#	End of record

