#	Name: ASD05730056
#	Creating user name:	WinNT
#	Creation time:	15. 06. 2019 21:02

#	Modifying user name:	WinNT
#	Modification time:	15. 06. 2019 21:02

#	Program:	/corina/corina34_cracker 3.40 0067  02.08.2006

@<TRIPOS>MOLECULE
ASD05730056
  72   77    0    0    0
SMALL
NO_CHARGES


@<TRIPOS>ATOM
   1 O1             0.1263     1.3256     0.8774 O.3     
   2 C2             0.1151    -0.0173     0.6636 C.ar    
   3 C3            -0.8858    -0.5880    -0.1088 C.ar    
   4 C4            -0.8982    -1.9516    -0.3260 C.ar    
   5 C5             0.0921    -2.7517     0.2288 C.ar    
   6 C6             1.0940    -2.1796     1.0016 C.ar    
   7 C7             1.1079    -0.8151     1.2135 C.ar    
   8 N8             0.0800    -4.1345     0.0095 N.pl3   
   9 C9             1.2661    -4.8106    -0.2042 C.ar    
  10 N10            1.2395    -6.1312    -0.2978 N.ar    
  11 C11            2.3589    -6.8163    -0.5034 C.ar    
  12 C12            3.5746    -6.1082    -0.6197 C.ar    
  13 C13            3.5499    -4.7094    -0.5133 C.ar    
  14 N14            2.3902    -4.1114    -0.3136 N.ar    
  15 N15            2.3380    -8.1850    -0.6008 N.am    
  16 C16            3.4726    -8.8799    -0.8084 C.2     
  17 C17            4.7556    -8.1812    -0.9348 C.2     
  18 C18            4.7855    -6.8037    -0.8393 C.2     
  19 C19            1.0649    -8.8993    -0.4769 C.3     
  20 O20            3.4331   -10.0944    -0.8911 O.2     
  21 C21            6.0004    -8.9411    -1.1623 C.2     
  22 C22            0.7795    -9.6946    -1.7630 C.3     
  23 S23            6.3641    -9.8881    -2.5992 S.3     
  24 C24           -2.1605     2.0993     1.0030 C.3     
  25 C25           -0.8615     2.0996     0.1939 C.3     
  26 C26            7.0382    -9.0122    -0.3028 C.2     
  27 C27            8.0944    -9.7859    -0.7381 C.2     
  28 C28            7.9301   -10.3432    -1.9412 C.2     
  29 C29            1.1460    -9.9289     0.6690 C.3     
  30 C30            0.3302   -11.1392     0.1507 C.3     
  31 C31            0.6970   -11.1797    -1.3536 C.3     
  32 N32           -3.1695     2.9119     0.3115 N.3     
  33 C33           -2.7343     4.3092     0.1907 C.3     
  34 C34           -1.4524     4.3754    -0.6426 C.3     
  35 C35           -0.3642     3.5392     0.0365 C.3     
  36 S36            9.5539   -10.0196     0.2211 S.o     
  37 C37            9.1648   -11.4941     1.2034 C.3     
  38 O38           10.5307   -10.3467    -0.7577 O.2     
  39 C39           10.3531   -11.8343     2.1052 C.3     
  40 F40           10.6119   -10.7585     2.9613 F       
  41 F41           10.0531   -12.9715     2.8628 F       
  42 F42           11.4810   -12.0839     1.3160 F       
  43 H43           -1.6559     0.0344    -0.5402 H       
  44 H44           -1.6780    -2.3959    -0.9268 H       
  45 H45            1.8643    -2.8011     1.4337 H       
  46 H46            1.8870    -0.3699     1.8145 H       
  47 H47           -0.7610    -4.6180     0.0076 H       
  48 H48            4.4600    -4.1339    -0.5966 H       
  49 H49            5.7185    -6.2671    -0.9295 H       
  50 H50            0.2572    -8.1922    -0.2881 H       
  51 H51           -0.1673    -9.3740    -2.1978 H       
  52 H52            1.5881    -9.5490    -2.4792 H       
  53 H53           -2.5249     1.0771     1.1046 H       
  54 H54           -1.9726     2.5178     1.9917 H       
  55 H55           -1.0455     1.6679    -0.7899 H       
  56 H56            7.0418    -8.5037     0.6499 H       
  57 H57            8.6513   -10.9770    -2.4359 H       
  58 H58            2.1816   -10.2165     0.8508 H       
  59 H59            0.6961    -9.5260     1.5764 H       
  60 H60            0.6419   -12.0571     0.6491 H       
  61 H61           -0.7384   -10.9701     0.2833 H       
  62 H62           -0.0806   -11.6895    -1.9223 H       
  63 H63            1.6601   -11.6693    -1.4984 H       
  64 H64           -3.3897     2.5223    -0.5929 H       
  65 H65           -3.5154     4.8919    -0.2976 H       
  66 H66           -2.5437     4.7173     1.1833 H       
  67 H67           -1.6458     3.9801    -1.6398 H       
  68 H68           -1.1210     5.4110    -0.7189 H       
  69 H69           -0.1430     3.9575     1.0184 H       
  70 H70            0.5375     3.5482    -0.5759 H       
  71 H71            8.2861   -11.2996     1.8183 H       
  72 H72            8.9632   -12.3323     0.5364 H       
@<TRIPOS>BOND
   1    1    2 1
   2    1   25 1
   3    2    3 ar
   4    2    7 ar
   5    3    4 ar
   6    3   43 1
   7    4    5 ar
   8    4   44 1
   9    5    6 ar
  10    5    8 1
  11    6    7 ar
  12    6   45 1
  13    7   46 1
  14    8    9 1
  15    8   47 1
  16    9   10 ar
  17    9   14 ar
  18   10   11 ar
  19   11   12 ar
  20   11   15 1
  21   12   13 ar
  22   12   18 1
  23   13   14 ar
  24   13   48 1
  25   15   16 am
  26   15   19 1
  27   16   17 1
  28   16   20 2
  29   17   18 2
  30   17   21 1
  31   18   49 1
  32   19   22 1
  33   19   29 1
  34   19   50 1
  35   21   23 1
  36   21   26 2
  37   22   31 1
  38   22   51 1
  39   22   52 1
  40   23   28 1
  41   24   25 1
  42   24   32 1
  43   24   53 1
  44   24   54 1
  45   25   35 1
  46   25   55 1
  47   26   27 1
  48   26   56 1
  49   27   28 2
  50   27   36 1
  51   28   57 1
  52   29   30 1
  53   29   58 1
  54   29   59 1
  55   30   31 1
  56   30   60 1
  57   30   61 1
  58   31   62 1
  59   31   63 1
  60   32   33 1
  61   32   64 1
  62   33   34 1
  63   33   65 1
  64   33   66 1
  65   34   35 1
  66   34   67 1
  67   34   68 1
  68   35   69 1
  69   35   70 1
  70   36   37 1
  71   36   38 2
  72   37   39 1
  73   37   71 1
  74   37   72 1
  75   39   40 1
  76   39   41 1
  77   39   42 1

#	End of record

