#	Name: ASD04750010
#	Creating user name:	WinNT
#	Creation time:	15. 06. 2019 20:52

#	Modifying user name:	WinNT
#	Modification time:	15. 06. 2019 20:52

#	Program:	/corina/corina34_cracker 3.40 0067  02.08.2006

@<TRIPOS>MOLECULE
ASD04750010
  42   45    0    0    0
SMALL
NO_CHARGES


@<TRIPOS>ATOM
   1 C1             0.7855     0.6450    -2.0002 C.ar    
   2 C2             0.8622    -0.6797    -1.6085 C.ar    
   3 C3             1.9700    -1.1382    -0.9282 C.ar    
   4 C4             3.0208    -0.2629    -0.6315 C.ar    
   5 C5             2.9347     1.0702    -1.0301 C.ar    
   6 C6             1.8202     1.5168    -1.7111 C.ar    
   7 C7             4.2995    -0.4941     0.0741 C.2     
   8 C8             5.0448     0.7642     0.1140 C.2     
   9 C9             4.1870     1.7886    -0.5909 C.3     
  10 C10            6.2581     0.9694     0.6712 C.2     
  11 C11            6.7963     2.3341     0.7798 C.ar    
  12 C12            5.9343     3.4149     0.9949 C.ar    
  13 C13            8.1733     2.5574     0.6744 C.ar    
  14 C14            8.6698     3.8395     0.7778 C.ar    
  15 C15            7.8099     4.9040     0.9858 C.ar    
  16 C16            6.4467     4.6908     1.0961 C.ar    
  17 O17            4.6702    -1.5543     0.5433 O.2     
  18 N18            4.8982     2.3218    -1.7605 N.3     
  19 C19            4.1875     3.4771    -2.3276 C.3     
  20 C20            5.0937     1.2795    -2.7786 C.3     
  21 C21            5.8887     1.8611    -3.9506 C.3     
  22 O22            5.1986     3.0015    -4.4689 O.3     
  23 C23            4.9915     4.0367    -3.5041 C.3     
  24 H24           -0.0825     0.9985    -2.5370 H       
  25 H25            0.0518    -1.3564    -1.8361 H       
  26 H26            2.0268    -2.1729    -0.6239 H       
  27 H27            1.7558     2.5499    -2.0193 H       
  28 H28            3.9330     2.5979     0.0936 H       
  29 H29            6.8331     0.1315     1.0368 H       
  30 H30            4.8705     3.2501     1.0811 H       
  31 H31            8.8456     1.7278     0.5128 H       
  32 H32            9.7326     4.0136     0.6967 H       
  33 H33            8.2051     5.9058     1.0667 H       
  34 H34            5.7823     5.5267     1.2583 H       
  35 H35            3.2032     3.1639    -2.6756 H       
  36 H36            4.0763     4.2468    -1.5638 H       
  37 H37            5.6440     0.4449    -2.3440 H       
  38 H38            4.1239     0.9312    -3.1338 H       
  39 H39            6.8786     2.1603    -3.6061 H       
  40 H40            5.9869     1.1085    -4.7329 H       
  41 H41            4.4409     4.8576    -3.9635 H       
  42 H42            5.9554     4.3992    -3.1466 H       
@<TRIPOS>BOND
   1    1    2 ar
   2    1    6 ar
   3    1   24 1
   4    2    3 ar
   5    2   25 1
   6    3    4 ar
   7    3   26 1
   8    4    5 ar
   9    4    7 1
  10    5    6 ar
  11    5    9 1
  12    6   27 1
  13    7    8 1
  14    7   17 2
  15    8    9 1
  16    8   10 2
  17    9   18 1
  18    9   28 1
  19   10   11 1
  20   10   29 1
  21   11   12 ar
  22   11   13 ar
  23   12   16 ar
  24   12   30 1
  25   13   14 ar
  26   13   31 1
  27   14   15 ar
  28   14   32 1
  29   15   16 ar
  30   15   33 1
  31   16   34 1
  32   18   19 1
  33   18   20 1
  34   19   23 1
  35   19   35 1
  36   19   36 1
  37   20   21 1
  38   20   37 1
  39   20   38 1
  40   21   22 1
  41   21   39 1
  42   21   40 1
  43   22   23 1
  44   23   41 1
  45   23   42 1

#	End of record

