#	Name: ASD02198392
#	Creating user name:	WinNT
#	Creation time:	15. 06. 2019 20:19

#	Modifying user name:	WinNT
#	Modification time:	15. 06. 2019 20:19

#	Program:	/corina/corina34_cracker 3.40 0067  02.08.2006

@<TRIPOS>MOLECULE
ASD02198392
  45   48    0    0    0
SMALL
NO_CHARGES


@<TRIPOS>ATOM
   1 C1            -0.2126     1.0761    -0.3402 C.2     
   2 C2            -0.1178    -0.2702    -0.3562 C.2     
   3 S3             1.3968     1.7750    -0.2164 S.3     
   4 C4             2.1239     0.1739    -0.1925 C.2     
   5 C5             1.1677    -0.7581    -0.2748 C.2     
   6 S6             3.8514    -0.1534    -0.0776 S.o2    
   7 N7             4.4421    -0.2173    -1.6234 N.am    
   8 C8             4.3255     0.8947    -2.4629 C.ar    
   9 C9             4.0864     0.7186    -3.8421 C.ar    
  10 C10            3.9712     1.8591    -4.6743 C.ar    
  11 C11            4.0958     3.1461    -4.1162 C.ar    
  12 C12            4.3284     3.2842    -2.7668 C.ar    
  13 C13            4.4379     2.1661    -1.9455 C.ar    
  14 N14            3.9687    -0.5039    -4.3691 N.ar    
  15 C15            3.7469    -0.6758    -5.6497 C.ar    
  16 C16            3.6238     0.4025    -6.5229 C.ar    
  17 C17            3.7329     1.6791    -6.0488 C.ar    
  18 O18            4.4371     0.9905     0.5287 O.2     
  19 O19            3.9768    -1.4650     0.4544 O.2     
  20 C20           -1.4705     1.8427    -0.4206 C.ar    
  21 C21           -1.4533     3.2433    -0.3954 C.ar    
  22 N22           -2.6420     1.2136    -0.5240 N.ar    
  23 C23           -3.7711     1.9010    -0.5961 C.ar    
  24 N24           -3.7828     3.2268    -0.5692 N.ar    
  25 C25           -2.6570     3.9178    -0.4732 C.ar    
  26 S26           -5.2978     1.0319    -0.7318 S.3     
  27 C27           -6.4495     2.4270    -0.7906 C.3     
  28 O28            3.9873     4.2465    -4.9066 O.3     
  29 C29            4.1248     5.5185    -4.2701 C.3     
  30 H30           -0.9819    -0.9142    -0.4269 H       
  31 H31            1.3876    -1.8155    -0.2769 H       
  32 H32            4.8690    -1.0262    -1.9464 H       
  33 H33            4.4238     4.2716    -2.3398 H       
  34 H34            4.6206     2.2970    -0.8892 H       
  35 H35            3.6578    -1.6797    -6.0379 H       
  36 H36            3.4418     0.2295    -7.5733 H       
  37 H37            3.6400     2.5268    -6.7115 H       
  38 H38           -0.5213     3.7832    -0.3166 H       
  39 H39           -2.6796     4.9973    -0.4523 H       
  40 H40           -6.3544     3.0154     0.1220 H       
  41 H41           -6.2181     3.0531    -1.6523 H       
  42 H42           -7.4696     2.0527    -0.8769 H       
  43 H43            3.3538     5.6284    -3.5075 H       
  44 H44            5.1082     5.5877    -3.8052 H       
  45 H45            4.0173     6.3096    -5.0122 H       
@<TRIPOS>BOND
   1    1    2 2
   2    1    3 1
   3    1   20 1
   4    2    5 1
   5    2   30 1
   6    3    4 1
   7    4    5 2
   8    4    6 1
   9    5   31 1
  10    6    7 am
  11    6   18 2
  12    6   19 2
  13    7    8 1
  14    7   32 1
  15    8    9 ar
  16    8   13 ar
  17    9   10 ar
  18    9   14 ar
  19   10   11 ar
  20   10   17 ar
  21   11   12 ar
  22   11   28 1
  23   12   13 ar
  24   12   33 1
  25   13   34 1
  26   14   15 ar
  27   15   16 ar
  28   15   35 1
  29   16   17 ar
  30   16   36 1
  31   17   37 1
  32   20   21 ar
  33   20   22 ar
  34   21   25 ar
  35   21   38 1
  36   22   23 ar
  37   23   24 ar
  38   23   26 1
  39   24   25 ar
  40   25   39 1
  41   26   27 1
  42   27   40 1
  43   27   41 1
  44   27   42 1
  45   28   29 1
  46   29   43 1
  47   29   44 1
  48   29   45 1

#	End of record

