#	Name: ASD00840947
#	Creating user name:	WinNT
#	Creation time:	15. 06. 2019 18:40

#	Modifying user name:	WinNT
#	Modification time:	15. 06. 2019 18:40

#	Program:	/corina/corina34_cracker 3.40 0067  02.08.2006

@<TRIPOS>MOLECULE
ASD00840947
  95  100    0    0    0
SMALL
NO_CHARGES


@<TRIPOS>ATOM
   1 F1             6.0650    -1.9522    -2.0313 F       
   2 N2             1.0634     1.4586    -0.7543 N.ar    
   3 C3             1.3248     0.1666    -0.8608 C.ar    
   4 C4             1.2445    -0.6656     0.2487 C.ar    
   5 C5             0.8867    -0.1250     1.4712 C.ar    
   6 C6             0.6204     1.2358     1.5410 C.ar    
   7 C7             0.7197     2.0029     0.3977 C.ar    
   8 C8             1.5428    -2.1373     0.1225 C.3     
   9 C9             1.2605    -2.8495     1.4282 C.2     
  10 C10            0.7224    -2.7537    -1.0124 C.3     
  11 C11           -0.7396    -2.4630    -0.7906 C.2     
  12 N12           -1.6640    -2.9844    -1.6214 N.am    
  13 O13           -1.0844    -1.7598     0.1354 O.2     
  14 C14           -3.0813    -2.6214    -1.4867 C.3     
  15 C15           -3.9099    -3.9045    -1.3690 C.3     
  16 C16           -3.6047    -4.8152    -2.5605 C.3     
  17 C17           -2.1222    -5.1947    -2.5481 C.3     
  18 C18           -1.2726    -3.9219    -2.6828 C.3     
  19 C19           -4.4562    -6.0827    -2.4644 C.3     
  20 C20           -5.9400    -5.7047    -2.4784 C.3     
  21 C21           -6.7864    -6.9792    -2.4435 C.3     
  22 N22           -6.4646    -7.8140    -3.6080 N.3     
  23 C23           -5.0560    -8.2286    -3.5911 C.3     
  24 C24           -4.1579    -6.9914    -3.6602 C.3     
  25 C25           -7.3556    -8.9796    -3.6824 C.3     
  26 O26            0.1885    -2.9249     1.9906 O.2     
  27 N27            2.4206    -3.3828     1.8470 N.am    
  28 C28            3.0200    -2.3605    -0.1065 C.ar    
  29 C29            3.4729    -3.1142     0.9691 C.ar    
  30 C30            3.8806    -1.9712    -1.1083 C.ar    
  31 C31            5.2172    -2.3317    -1.0502 C.ar    
  32 C32            5.6813    -3.0840     0.0182 C.ar    
  33 C33            4.8173    -3.4744     1.0233 C.ar    
  34 F34            6.9842    -3.4366     0.0768 F       
  35 C35            2.2909    -5.9469     2.8384 C.ar    
  36 C36            1.0362    -6.3476     2.4021 C.ar    
  37 C37            3.3126    -6.8708     2.9499 C.ar    
  38 C38            3.0878    -8.1951     2.6270 C.ar    
  39 C39            1.8344    -8.6009     2.1901 C.ar    
  40 C40            0.8079    -7.6763     2.0778 C.ar    
  41 O41            1.6138    -9.9038     1.8730 O.3     
  42 O42            0.0318    -5.4387     2.2930 O.3     
  43 C43           -1.2336    -5.9218     1.8375 C.3     
  44 C44            2.7169   -10.8014     2.0129 C.3     
  45 C45           -7.1618    -9.6846    -5.0264 C.3     
  46 O46            1.6741    -0.3513    -2.0652 O.3     
  47 C47            2.1657    -0.1914    -4.4260 C.3     
  48 C48            1.6309     0.5315    -3.1881 C.3     
  49 S49            2.5837    -4.2573     3.2437 S.o2    
  50 O50            3.9517    -4.1656     3.6171 O.2     
  51 O51            1.5175    -3.8580     4.0940 O.2     
  52 H52            0.8158    -0.7475     2.3509 H       
  53 H53            0.3381     1.6892     2.4797 H       
  54 H54            0.5140     3.0620     0.4466 H       
  55 H55            1.0380    -2.3246    -1.9634 H       
  56 H56            0.8797    -3.8321    -1.0303 H       
  57 H57           -3.2195    -2.0138    -0.5924 H       
  58 H58           -3.3998    -2.0601    -2.3651 H       
  59 H59           -3.6539    -4.4191    -0.4428 H       
  60 H60           -4.9706    -3.6535    -1.3651 H       
  61 H61           -3.8377    -4.2908    -3.4873 H       
  62 H62           -1.8831    -5.6972    -1.6109 H       
  63 H63           -1.9106    -5.8621    -3.3836 H       
  64 H64           -1.4448    -3.4692    -3.6593 H       
  65 H65           -0.2175    -4.1738    -2.5755 H       
  66 H66           -4.2231    -6.6089    -1.5387 H       
  67 H67           -6.1678    -5.0926    -1.6057 H       
  68 H68           -6.1641    -5.1437    -3.3856 H       
  69 H69           -6.5719    -7.5327    -1.5294 H       
  70 H70           -7.8434    -6.7140    -2.4678 H       
  71 H71           -4.8496    -8.7763    -2.6716 H       
  72 H72           -4.8561    -8.8708    -4.4488 H       
  73 H73           -4.3539    -6.4506    -4.5860 H       
  74 H74           -3.1124    -7.2986    -3.6319 H       
  75 H75           -7.1193    -9.6699    -2.8726 H       
  76 H76           -8.3910    -8.6519    -3.5900 H       
  77 H77            3.5142    -1.3857    -1.9385 H       
  78 H78            5.1853    -4.0599     1.8529 H       
  79 H79            4.2885    -6.5569     3.2897 H       
  80 H80            3.8880    -8.9151     2.7143 H       
  81 H81           -0.1681    -7.9902     1.7384 H       
  82 H82           -1.1210    -6.3545     0.8435 H       
  83 H83           -1.6010    -6.6831     2.5257 H       
  84 H84           -1.9442    -5.0962     1.7961 H       
  85 H85            2.4059   -11.8065     1.7281 H       
  86 H86            3.5333   -10.4771     1.3675 H       
  87 H87            3.0530   -10.8051     3.0498 H       
  88 H88           -7.8229   -10.5495    -5.0817 H       
  89 H89           -7.3981    -8.9943    -5.8362 H       
  90 H90           -6.1263   -10.0123    -5.1188 H       
  91 H91            3.1628    -0.5793    -4.2177 H       
  92 H92            1.5006    -1.0166    -4.6805 H       
  93 H93            2.2147     0.5068    -5.2616 H       
  94 H94            0.6017     0.8433    -3.3658 H       
  95 H95            2.2462     1.4081    -2.9851 H       
@<TRIPOS>BOND
   1    1   31 1
   2    2    3 ar
   3    2    7 ar
   4    3    4 ar
   5    3   46 1
   6    4    5 ar
   7    4    8 1
   8    5    6 ar
   9    5   52 1
  10    6    7 ar
  11    6   53 1
  12    7   54 1
  13    8    9 1
  14    8   10 1
  15    8   28 1
  16    9   26 2
  17    9   27 am
  18   10   11 1
  19   10   55 1
  20   10   56 1
  21   11   12 am
  22   11   13 2
  23   12   14 1
  24   12   18 1
  25   14   15 1
  26   14   57 1
  27   14   58 1
  28   15   16 1
  29   15   59 1
  30   15   60 1
  31   16   17 1
  32   16   19 1
  33   16   61 1
  34   17   18 1
  35   17   62 1
  36   17   63 1
  37   18   64 1
  38   18   65 1
  39   19   20 1
  40   19   24 1
  41   19   66 1
  42   20   21 1
  43   20   67 1
  44   20   68 1
  45   21   22 1
  46   21   69 1
  47   21   70 1
  48   22   23 1
  49   22   25 1
  50   23   24 1
  51   23   71 1
  52   23   72 1
  53   24   73 1
  54   24   74 1
  55   25   45 1
  56   25   75 1
  57   25   76 1
  58   27   49 am
  59   27   29 1
  60   28   29 ar
  61   28   30 ar
  62   29   33 ar
  63   30   31 ar
  64   30   77 1
  65   31   32 ar
  66   32   33 ar
  67   32   34 1
  68   33   78 1
  69   35   36 ar
  70   35   37 ar
  71   35   49 1
  72   36   42 1
  73   36   40 ar
  74   37   38 ar
  75   37   79 1
  76   38   39 ar
  77   38   80 1
  78   39   40 ar
  79   39   41 1
  80   40   81 1
  81   41   44 1
  82   42   43 1
  83   43   82 1
  84   43   83 1
  85   43   84 1
  86   44   85 1
  87   44   86 1
  88   44   87 1
  89   45   88 1
  90   45   89 1
  91   45   90 1
  92   46   48 1
  93   47   48 1
  94   47   91 1
  95   47   92 1
  96   47   93 1
  97   48   94 1
  98   48   95 1
  99   49   50 2
 100   49   51 2

#	End of record

