#	Name: ASD02198579
#	Creating user name:	WinNT
#	Creation time:	15. 06. 2019 20:19

#	Modifying user name:	WinNT
#	Modification time:	15. 06. 2019 20:19

#	Program:	/corina/corina34_cracker 3.40 0067  02.08.2006

@<TRIPOS>MOLECULE
ASD02198579
  52   56    0    0    0
SMALL
NO_CHARGES


@<TRIPOS>ATOM
   1 C1             0.0072     1.5096     0.1335 C.2     
   2 C2             0.0744     0.1696    -0.0948 C.2     
   3 N3            -1.0522    -0.5606    -0.2645 N.pl3   
   4 N4            -2.2301    -0.0571    -0.2237 N.2     
   5 C5            -2.4377     1.2257    -0.0103 C.2     
   6 C6            -1.2792     2.1065     0.1922 C.2     
   7 C7            -0.9247    -1.9335    -0.4966 C.ar    
   8 C8            -1.3867    -3.8622    -1.8509 C.ar    
   9 C9            -0.6724    -4.6557    -0.9558 C.ar    
  10 C10           -0.0901    -4.0802     0.1724 C.ar    
  11 C11           -0.2167    -2.7263     0.3990 C.ar    
  12 C12           -3.8109     1.7685     0.0297 C.2     
  13 N13           -4.3729     2.4808     1.0516 N.pl3   
  14 N14           -5.6848     2.7991     0.6788 N.2     
  15 C15           -5.9153     2.3064    -0.5121 C.2     
  16 C16           -4.7642     1.6572    -0.9586 C.2     
  17 C17           -3.7490     2.8294     2.2562 C.ar    
  18 C18           -2.9556     1.9044     2.9220 C.ar    
  19 O19           -1.4171     3.3044     0.3943 O.2     
  20 C20           -3.9180     4.1025     2.7844 C.ar    
  21 C21           -3.3016     4.4431     3.9724 C.ar    
  22 C22           -2.5167     3.5179     4.6359 C.ar    
  23 C23           -2.3418     2.2511     4.1096 C.ar    
  24 C24           -1.5119    -2.5061    -1.6215 C.ar    
  25 F25           -2.2046    -1.7354    -2.4883 F       
  26 O26            1.1345     2.2508     0.3051 O.3     
  27 C27            2.3828     1.5588     0.2346 C.3     
  28 C28           -0.5369    -6.1136    -1.2000 C.2     
  29 C29            0.1305    -7.0048    -0.4111 C.2     
  30 C30           -1.0789    -6.8297    -2.2852 C.2     
  31 N31           -0.7450    -8.0858    -2.1499 N.2     
  32 N32            0.0143    -8.2211    -0.9814 N.pl3   
  33 C33            0.5849    -9.4687    -0.4675 C.3     
  34 F34            0.8742   -10.3241    -1.5361 F       
  35 F35            1.7606    -9.1884     0.2370 F       
  36 H36            1.0378    -0.3163    -0.1413 H       
  37 H37           -1.8385    -4.3064    -2.7255 H       
  38 H38            0.4638    -4.6945     0.8669 H       
  39 H39            0.2351    -2.2810     1.2731 H       
  40 H40           -6.8419     2.3924    -1.0601 H       
  41 H41           -4.6443     1.1518    -1.9054 H       
  42 H42           -2.8189     0.9148     2.5116 H       
  43 H43           -4.5306     4.8257     2.2665 H       
  44 H44           -3.4323     5.4332     4.3835 H       
  45 H45           -2.0356     3.7867     5.5647 H       
  46 H46           -1.7282     1.5308     4.6301 H       
  47 H47            2.4168     0.7909     1.0074 H       
  48 H48            2.4851     1.0929    -0.7455 H       
  49 H49            3.1988     2.2650     0.3881 H       
  50 H50            0.6565    -6.7771     0.5043 H       
  51 H51           -1.6681    -6.4133    -3.0888 H       
  52 H52           -0.1320    -9.9489     0.1985 H       
@<TRIPOS>BOND
   1    1    2 2
   2    1   26 1
   3    1    6 1
   4    2    3 1
   5    2   36 1
   6    3    4 1
   7    3    7 1
   8    4    5 2
   9    5    6 1
  10    5   12 1
  11    6   19 2
  12    7   24 ar
  13    7   11 ar
  14    8    9 ar
  15    8   24 ar
  16    8   37 1
  17    9   10 ar
  18    9   28 1
  19   10   11 ar
  20   10   38 1
  21   11   39 1
  22   12   13 1
  23   12   16 2
  24   13   14 1
  25   13   17 1
  26   14   15 2
  27   15   16 1
  28   15   40 1
  29   16   41 1
  30   17   20 ar
  31   17   18 ar
  32   18   23 ar
  33   18   42 1
  34   20   21 ar
  35   20   43 1
  36   21   22 ar
  37   21   44 1
  38   22   23 ar
  39   22   45 1
  40   23   46 1
  41   24   25 1
  42   26   27 1
  43   27   47 1
  44   27   48 1
  45   27   49 1
  46   28   29 2
  47   28   30 1
  48   29   32 1
  49   29   50 1
  50   30   31 2
  51   30   51 1
  52   31   32 1
  53   32   33 1
  54   33   34 1
  55   33   35 1
  56   33   52 1

#	End of record

