#	Name: ASD01885401
#	Creating user name:	WinNT
#	Creation time:	15. 06. 2019 19:49

#	Modifying user name:	WinNT
#	Modification time:	15. 06. 2019 19:49

#	Program:	/corina/corina34_cracker 3.40 0067  02.08.2006

@<TRIPOS>MOLECULE
ASD01885401
  28   30    0    0    0
SMALL
NO_CHARGES


@<TRIPOS>ATOM
   1 C1            -0.0168     1.3902     0.0097 C.ar    
   2 C2             0.0021    -0.0041     0.0020 C.ar    
   3 N3            -1.1145    -0.7759     0.0186 N.2     
   4 C4            -2.1893    -0.5675    -0.6487 C.2     
   5 C5            -2.3482     0.6309    -1.5465 C.3     
   6 C6            -2.2774     1.8708    -0.6911 C.2     
   7 N7            -1.1818     2.1455     0.0183 N.am    
   8 C8             1.1909     2.0902     0.0019 C.ar    
   9 C9             2.3952     1.4194    -0.0178 C.ar    
  10 C10            2.4181     0.0327    -0.0307 C.ar    
  11 C11            1.2379    -0.6744    -0.0204 C.ar    
  12 C12           -3.3009    -1.5285    -0.5340 C.ar    
  13 C13           -3.2004    -2.6610     0.2895 C.ar    
  14 C14           -4.2865    -3.5165     0.3451 C.ar    
  15 N15           -5.3696    -3.2547    -0.3621 N.ar    
  16 N16           -5.4694    -2.2225    -1.1168 N.ar    
  17 C17           -4.4973    -1.3411    -1.2386 C.ar    
  18 O18           -3.2259     2.6255    -0.6479 O.2     
  19 Br19           4.0175     2.3910    -0.0281 Br      
  20 Cl20           3.9353    -0.8104    -0.0597 Cl      
  21 H21           -1.5461     0.6467    -2.2844 H       
  22 H22           -3.3130     0.5869    -2.0517 H       
  23 H23           -1.2002     2.9337     0.5834 H       
  24 H24            1.1817     3.1701     0.0111 H       
  25 H25            1.2609    -1.7542    -0.0306 H       
  26 H26           -2.3051    -2.8581     0.8605 H       
  27 H27           -4.2477    -4.3986     0.9669 H       
  28 H28           -4.6189    -0.4840    -1.8843 H       
@<TRIPOS>BOND
   1    1    2 ar
   2    1    8 ar
   3    1    7 1
   4    2    3 1
   5    2   11 ar
   6    3    4 2
   7    4    5 1
   8    4   12 1
   9    5    6 1
  10    5   21 1
  11    5   22 1
  12    6    7 am
  13    6   18 2
  14    7   23 1
  15    8    9 ar
  16    8   24 1
  17    9   10 ar
  18    9   19 1
  19   10   11 ar
  20   10   20 1
  21   11   25 1
  22   12   13 ar
  23   12   17 ar
  24   13   14 ar
  25   13   26 1
  26   14   15 ar
  27   14   27 1
  28   15   16 ar
  29   16   17 ar
  30   17   28 1

#	End of record

