#	Name: ASD01708017
#	Creating user name:	WinNT
#	Creation time:	15. 06. 2019 19:22

#	Modifying user name:	WinNT
#	Modification time:	15. 06. 2019 19:22

#	Program:	/corina/corina34_cracker 3.40 0067  02.08.2006

@<TRIPOS>MOLECULE
ASD01708017
  61   63    0    0    0
SMALL
NO_CHARGES


@<TRIPOS>ATOM
   1 C1            -0.0167     1.3791     0.0096 C.ar    
   2 C2             0.0021    -0.0041     0.0020 C.ar    
   3 C3             1.1711     2.0862     0.0021 C.ar    
   4 C4             2.3773     1.4115    -0.0135 C.ar    
   5 C5             2.3967     0.0290    -0.0216 C.ar    
   6 C6             1.2100    -0.6790    -0.0131 C.ar    
   7 Cl7           -1.4892    -0.8928     0.0121 Cl      
   8 C8             3.7123    -0.7059    -0.0391 C.3     
   9 C9             4.0497    -1.1813     1.3755 C.3     
  10 O10            3.6160    -1.8342    -0.9106 O.3     
  11 C11            5.4413    -1.8172     1.3814 C.3     
  12 C12            5.7736    -2.2856     2.7747 C.ar    
  13 C13            5.4378    -3.5686     3.1678 C.ar    
  14 C14            6.4181    -1.4321     3.6521 C.ar    
  15 C15            6.7268    -1.8543     4.9301 C.ar    
  16 C16            6.3861    -3.1472     5.3364 C.ar    
  17 C17            5.7395    -4.0052     4.4427 C.ar    
  18 Cl18           5.3112    -5.6136     4.9359 Cl      
  19 Cl19           7.5366    -0.7818     6.0291 Cl      
  20 C20            6.7131    -3.6067     6.7014 C.2     
  21 N21            7.8946    -4.2075     6.9452 N.am    
  22 O22            5.9165    -3.4430     7.6050 O.2     
  23 C23            8.2190    -4.6632     8.2992 C.3     
  24 C24            8.8021    -3.5192     9.0881 C.2     
  25 O25            9.1757    -3.7053    10.3639 O.3     
  26 O26            8.9332    -2.4345     8.5723 O.2     
  27 C27            9.2379    -5.8021     8.2236 C.3     
  28 C28            8.6121    -6.9915     7.5418 C.ar    
  29 C29            8.7031    -7.1284     6.1691 C.ar    
  30 C30            7.9520    -7.9484     8.2895 C.ar    
  31 C31            7.3778    -9.0395     7.6640 C.ar    
  32 C32            7.4636    -9.1733     6.2910 C.ar    
  33 C33            8.1292    -8.2192     5.5438 C.ar    
  34 S34            6.5373   -10.2599     8.6173 S.o2    
  35 C35            4.8197    -9.6800     8.6819 C.3     
  36 O36            6.6350   -11.4431     7.8364 O.2     
  37 O37            7.1399   -10.1779     9.9015 O.2     
  38 H38           -0.9592     1.9064     0.0170 H       
  39 H39            1.1566     3.1661     0.0080 H       
  40 H40            3.3050     1.9644    -0.0198 H       
  41 H41            1.2252    -1.7589    -0.0194 H       
  42 H42            4.4968    -0.0380    -0.3947 H       
  43 H43            4.0358    -0.3312     2.0575 H       
  44 H44            3.3126    -1.9172     1.6969 H       
  45 H45            2.9361    -2.4723    -0.6543 H       
  46 H46            5.4552    -2.6674     0.6993 H       
  47 H47            6.1784    -1.0814     1.0599 H       
  48 H48            4.9382    -4.2305     2.4759 H       
  49 H49            6.6808    -0.4331     3.3366 H       
  50 H50            8.5303    -4.3381     6.2242 H       
  51 H51            7.3128    -5.0184     8.7899 H       
  52 H52            9.5444    -2.9419    10.8291 H       
  53 H53           10.1082    -5.4739     7.6553 H       
  54 H54            9.5461    -6.0814     9.2311 H       
  55 H55            9.2225    -6.3828     5.5853 H       
  56 H56            7.8849    -7.8439     9.3623 H       
  57 H57            7.0154   -10.0258     5.8025 H       
  58 H58            8.1962    -8.3237     4.4709 H       
  59 H59            4.4218    -9.6092     7.6696 H       
  60 H60            4.2202   -10.3836     9.2595 H       
  61 H61            4.7851    -8.6988     9.1554 H       
@<TRIPOS>BOND
   1    1    2 ar
   2    1    3 ar
   3    1   38 1
   4    2    7 1
   5    2    6 ar
   6    3    4 ar
   7    3   39 1
   8    4    5 ar
   9    4   40 1
  10    5    6 ar
  11    5    8 1
  12    6   41 1
  13    8    9 1
  14    8   10 1
  15    8   42 1
  16    9   11 1
  17    9   43 1
  18    9   44 1
  19   10   45 1
  20   11   12 1
  21   11   46 1
  22   11   47 1
  23   12   13 ar
  24   12   14 ar
  25   13   17 ar
  26   13   48 1
  27   14   15 ar
  28   14   49 1
  29   15   16 ar
  30   15   19 1
  31   16   17 ar
  32   16   20 1
  33   17   18 1
  34   20   21 am
  35   20   22 2
  36   21   23 1
  37   21   50 1
  38   23   24 1
  39   23   27 1
  40   23   51 1
  41   24   25 1
  42   24   26 2
  43   25   52 1
  44   27   28 1
  45   27   53 1
  46   27   54 1
  47   28   29 ar
  48   28   30 ar
  49   29   33 ar
  50   29   55 1
  51   30   31 ar
  52   30   56 1
  53   31   32 ar
  54   31   34 1
  55   32   33 ar
  56   32   57 1
  57   33   58 1
  58   34   35 1
  59   34   36 2
  60   34   37 2
  61   35   59 1
  62   35   60 1
  63   35   61 1

#	End of record

