#	Name: ASD01911673
#	Creating user name:	WinNT
#	Creation time:	15. 06. 2019 19:58

#	Modifying user name:	WinNT
#	Modification time:	15. 06. 2019 19:58

#	Program:	/corina/corina34_cracker 3.40 0067  02.08.2006

@<TRIPOS>MOLECULE
ASD01911673
  43   46    0    0    0
SMALL
NO_CHARGES


@<TRIPOS>ATOM
   1 N1            -0.3269     1.3518    -0.0230 N.am    
   2 C2            -0.4136     0.0069    -0.0414 C.2     
   3 C3            -1.6970    -0.6406    -0.3241 C.2     
   4 C4            -1.9240    -1.9896    -0.3735 C.2     
   5 S5            -3.2216     0.1805    -0.6529 S.3     
   6 C6            -4.0207    -1.3786    -0.8329 C.2     
   7 N7            -3.1500    -2.3388    -0.6429 N.2     
   8 C8            -5.4076    -1.5674    -1.1352 C.1     
   9 C9            -6.5447    -1.7222    -1.3830 C.1     
  10 C10           -7.9316    -1.9110    -1.6853 C.ar    
  11 C11           -8.4554    -3.2019    -1.8044 C.ar    
  12 C12           -9.7921    -3.3755    -2.0952 C.ar    
  13 C13          -10.6145    -2.2762    -2.2696 C.ar    
  14 C14          -10.1034    -0.9953    -2.1533 C.ar    
  15 C15           -8.7701    -0.8054    -1.8572 C.ar    
  16 O16            0.5744    -0.6697     0.1768 O.2     
  17 C17            0.7357     2.3413     0.2108 C.3     
  18 C18           -0.0493     3.3144    -0.6799 C.3     
  19 C19           -1.2518     2.4755    -0.2344 C.3     
  20 N20           -0.0637     4.6998    -0.1916 N.3     
  21 C21            1.2747     5.3099    -0.2936 C.3     
  22 C22           -1.0170     5.5240    -0.9646 C.3     
  23 C23           -0.3738     6.9324    -1.0128 C.3     
  24 C24            1.1318     6.5847    -1.1515 C.3     
  25 H25           -1.1415    -2.7139    -0.2014 H       
  26 H26           -7.8147    -4.0607    -1.6693 H       
  27 H27          -10.1982    -4.3720    -2.1875 H       
  28 H28          -11.6605    -2.4186    -2.4979 H       
  29 H29          -10.7514    -0.1423    -2.2911 H       
  30 H30           -8.3727     0.1948    -1.7669 H       
  31 H31            0.8069     2.6646     1.2493 H       
  32 H32            1.6992     2.0507    -0.2078 H       
  33 H33            0.1800     3.2319    -1.7423 H       
  34 H34           -1.9768     2.2999    -1.0291 H       
  35 H35           -1.7130     2.8327     0.6864 H       
  36 H36            1.6401     5.5705     0.6997 H       
  37 H37            1.9634     4.6150    -0.7739 H       
  38 H38           -1.1332     5.1253    -1.9724 H       
  39 H39           -1.9813     5.5644    -0.4581 H       
  40 H40           -0.7263     7.4933    -1.8783 H       
  41 H41           -0.5645     7.4805    -0.0901 H       
  42 H42            1.7512     7.3885    -0.7536 H       
  43 H43            1.3857     6.3797    -2.1915 H       
@<TRIPOS>BOND
   1    1    2 am
   2    1   17 1
   3    1   19 1
   4    2    3 1
   5    2   16 2
   6    3    4 2
   7    3    5 1
   8    4    7 1
   9    4   25 1
  10    5    6 1
  11    6    7 2
  12    6    8 1
  13    8    9 3
  14    9   10 1
  15   10   11 ar
  16   10   15 ar
  17   11   12 ar
  18   11   26 1
  19   12   13 ar
  20   12   27 1
  21   13   14 ar
  22   13   28 1
  23   14   15 ar
  24   14   29 1
  25   15   30 1
  26   17   18 1
  27   17   31 1
  28   17   32 1
  29   18   19 1
  30   18   20 1
  31   18   33 1
  32   19   34 1
  33   19   35 1
  34   20   21 1
  35   20   22 1
  36   21   24 1
  37   21   36 1
  38   21   37 1
  39   22   23 1
  40   22   38 1
  41   22   39 1
  42   23   24 1
  43   23   40 1
  44   23   41 1
  45   24   42 1
  46   24   43 1

#	End of record

