#	Name: ASD01948314
#	Creating user name:	WinNT
#	Creation time:	15. 06. 2019 20:14

#	Modifying user name:	WinNT
#	Modification time:	15. 06. 2019 20:14

#	Program:	/corina/corina34_cracker 3.40 0067  02.08.2006

@<TRIPOS>MOLECULE
ASD01948314
  43   45    0    0    0
SMALL
NO_CHARGES


@<TRIPOS>ATOM
   1 C1            -0.3634     1.7168     0.4621 C.2     
   2 N2            -0.7002     0.3974     0.5474 N.am    
   3 C3             0.2432    -0.5621     0.5502 C.2     
   4 C4             1.9529     1.1157     0.3770 C.2     
   5 C5             0.9330     2.0970     0.3773 C.2     
   6 C6             2.9051     2.3960    -1.9137 C.ar    
   7 C7             3.7468     2.1870    -0.8294 C.ar    
   8 N8             3.2867     1.4858     0.2904 N.pl3   
   9 C9             3.3620     3.0882    -3.0183 C.ar    
  10 C10            4.6573     3.5738    -3.0461 C.ar    
  11 C11            5.4998     3.3680    -1.9681 C.ar    
  12 C12            5.0486     2.6759    -0.8592 C.ar    
  13 N13            1.2645     3.4590     0.2906 N.am    
  14 S14            0.0669     4.5972     0.1788 S.o2    
  15 C15           -0.7920     4.2000    -1.3688 C.3     
  16 O16           -0.0839    -1.7371     0.6280 O.2     
  17 C17           -2.1126     0.0190     0.6379 C.3     
  18 F18            5.8711     2.4748     0.1936 F       
  19 Br19           5.2777     4.5202    -4.5612 Br      
  20 O20           -0.7713     4.3348     1.2958 O.2     
  21 O21            0.7645     5.8294     0.0599 O.2     
  22 C22            1.5978    -0.2200     0.4640 C.2     
  23 F23            2.5472    -1.1811     0.4666 F       
  24 C24           -1.9372     5.1700    -1.7042 C.3     
  25 C25           -1.4723     5.0887    -3.1678 C.3     
  26 C26           -0.0791     4.7322    -2.6231 C.3     
  27 C27           -2.6551    -0.1795    -0.7160 C.1     
  28 N28           -3.0738    -0.3327    -1.7608 N.1     
  29 H29           -1.1407     2.4666     0.4576 H       
  30 H30            1.8952     2.0137    -1.8952 H       
  31 H31            3.9005     1.2586     1.0063 H       
  32 H32            2.7072     3.2504    -3.8617 H       
  33 H33            6.5104     3.7479    -1.9928 H       
  34 H34            2.1950     3.7330     0.2961 H       
  35 H35           -1.0750     3.1497    -1.4383 H       
  36 H36           -2.2050    -0.9068     1.2057 H       
  37 H37           -2.6692     0.8103     1.1400 H       
  38 H38           -2.9288     4.7493    -1.5370 H       
  39 H39           -1.8157     6.1587    -1.2617 H       
  40 H40           -1.9408     4.2813    -3.7305 H       
  41 H41           -1.5054     6.0448    -3.6902 H       
  42 H42            0.5505     5.6013    -2.4319 H       
  43 H43            0.4295     3.9582    -3.1978 H       
@<TRIPOS>BOND
   1    1    2 1
   2    1    5 2
   3    1   29 1
   4    2    3 am
   5    2   17 1
   6    3   22 1
   7    3   16 2
   8    4    5 1
   9    4    8 1
  10    4   22 2
  11    5   13 1
  12    6    7 ar
  13    6    9 ar
  14    6   30 1
  15    7    8 1
  16    7   12 ar
  17    8   31 1
  18    9   10 ar
  19    9   32 1
  20   10   11 ar
  21   10   19 1
  22   11   12 ar
  23   11   33 1
  24   12   18 1
  25   13   14 am
  26   13   34 1
  27   14   15 1
  28   14   20 2
  29   14   21 2
  30   15   24 1
  31   15   26 1
  32   15   35 1
  33   17   27 1
  34   17   36 1
  35   17   37 1
  36   22   23 1
  37   24   25 1
  38   24   38 1
  39   24   39 1
  40   25   26 1
  41   25   40 1
  42   25   41 1
  43   26   42 1
  44   26   43 1
  45   27   28 3

#	End of record

