#	Name: ASD03430777
#	Creating user name:	WinNT
#	Creation time:	15. 06. 2019 20:41

#	Modifying user name:	WinNT
#	Modification time:	15. 06. 2019 20:41

#	Program:	/corina/corina34_cracker 3.40 0067  02.08.2006

@<TRIPOS>MOLECULE
ASD03430777
  34   37    0    0    0
SMALL
NO_CHARGES


@<TRIPOS>ATOM
   1 C1            -0.0169     1.3941     0.0097 C.ar    
   2 C2             0.0021    -0.0041     0.0020 C.ar    
   3 C3             1.1996    -0.6759    -0.0117 C.ar    
   4 C4             2.4102     0.0195    -0.0093 C.ar    
   5 C5             2.3944     1.4118    -0.0069 C.ar    
   6 C6             1.1962     2.0994     0.0019 C.ar    
   7 C7             1.5482    -2.1403    -0.0434 C.3     
   8 C8             3.0336    -2.1398    -0.4295 C.3     
   9 C9             0.4208    -3.8494     1.0183 C.ar    
  10 C10            1.3129    -2.8119     1.2768 C.ar    
  11 C11            0.7135    -2.9021    -1.0322 C.2     
  12 N12            0.0897    -3.8751    -0.3385 N.am    
  13 O13            0.6188    -2.6844    -2.2216 O.2     
  14 C14            1.7829    -2.5934     2.5527 C.ar    
  15 C15            1.3690    -3.4070     3.5924 C.ar    
  16 C16            0.4826    -4.4399     3.3474 C.ar    
  17 C17            0.0093    -4.6630     2.0712 C.ar    
  18 O18            3.4693    -0.8369     0.0031 O.3     
  19 O19            1.1924     3.4565     0.0026 O.3     
  20 C20            2.4637     4.1089    -0.0056 C.3     
  21 C21           -1.2629     2.0997     0.0194 C.1     
  22 N22           -2.2514     2.6595     0.0272 N.1     
  23 H23           -0.9261    -0.5561     0.0072 H       
  24 H24            3.3259     1.9584    -0.0114 H       
  25 H25            3.5719    -2.9242     0.1025 H       
  26 H26            3.1532    -2.2496    -1.5074 H       
  27 H27           -0.5183    -4.5183    -0.7354 H       
  28 H28            2.4754    -1.7866     2.7418 H       
  29 H29            1.7376    -3.2360     4.5930 H       
  30 H30            0.1599    -5.0751     4.1590 H       
  31 H31           -0.6832    -5.4713     1.8877 H       
  32 H32            3.0156     3.8180    -0.8994 H       
  33 H33            2.3179     5.1891    -0.0041 H       
  34 H34            3.0276     3.8171     0.8805 H       
@<TRIPOS>BOND
   1    1    2 ar
   2    1    6 ar
   3    1   21 1
   4    2    3 ar
   5    2   23 1
   6    3    4 ar
   7    3    7 1
   8    4    5 ar
   9    4   18 1
  10    5    6 ar
  11    5   24 1
  12    6   19 1
  13    7    8 1
  14    7   10 1
  15    7   11 1
  16    8   18 1
  17    8   25 1
  18    8   26 1
  19    9   10 ar
  20    9   12 1
  21    9   17 ar
  22   10   14 ar
  23   11   12 am
  24   11   13 2
  25   12   27 1
  26   14   15 ar
  27   14   28 1
  28   15   16 ar
  29   15   29 1
  30   16   17 ar
  31   16   30 1
  32   17   31 1
  33   19   20 1
  34   20   32 1
  35   20   33 1
  36   20   34 1
  37   21   22 3

#	End of record

