#	Name: ASD03540570
#	Creating user name:	WinNT
#	Creation time:	15. 06. 2019 20:43

#	Modifying user name:	WinNT
#	Modification time:	15. 06. 2019 20:43

#	Program:	/corina/corina34_cracker 3.40 0067  02.08.2006

@<TRIPOS>MOLECULE
ASD03540570
  81   84    0    0    0
SMALL
NO_CHARGES


@<TRIPOS>ATOM
   1 C1             0.1665     1.9332     0.9603 C.2     
   2 C2             0.4457     0.4886     0.8281 C.ar    
   3 C3             0.2852    -0.3599     1.9253 C.ar    
   4 C4             0.5471    -1.7080     1.7947 C.ar    
   5 C5             0.9685    -2.2196     0.5801 C.ar    
   6 C6             1.1301    -1.3843    -0.5111 C.ar    
   7 C7             0.8657    -0.0353    -0.3961 C.ar    
   8 O8            -0.2035     2.3854     2.0253 O.2     
   9 O9             0.3277     2.7501    -0.0987 O.3     
  10 C10            1.2532    -3.6933     0.4453 C.3     
  11 N11            0.0666    -5.9796     3.0790 N.am    
  12 C12            0.8403    -5.2554     2.2527 C.2     
  13 N13            0.3384    -4.4481     1.3052 N.am    
  14 C14           -0.9948    -4.3185     1.1302 C.2     
  15 C15           -1.8920    -5.0901     2.0099 C.ar    
  16 C16           -3.2739    -5.0106     1.8929 C.ar    
  17 C17           -4.0748    -5.7622     2.7518 C.ar    
  18 C18           -3.4864    -6.5859     3.7193 C.ar    
  19 C19           -2.1271    -6.6638     3.8341 C.ar    
  20 C20           -1.3131    -5.9223     2.9871 C.ar    
  21 O21           -1.4430    -3.5848     0.2704 O.2     
  22 O22            2.0478    -5.3352     2.3683 O.2     
  23 C23            1.0538    -4.1202    -1.0104 C.3     
  24 C24           -5.5454    -5.6890     2.6414 C.2     
  25 N25           -6.3204    -6.4151     3.4712 N.am    
  26 O26           -6.0571    -4.9738     1.8019 O.2     
  27 C27           -7.7795    -6.3426     3.3616 C.3     
  28 C28           -8.4062    -7.2422     4.3955 C.ar    
  29 C29           -8.7068    -6.7464     5.6507 C.ar    
  30 C30           -9.2814    -7.5690     6.6002 C.ar    
  31 C31           -9.5568    -8.8937     6.2934 C.ar    
  32 C32           -9.2542    -9.3888     5.0332 C.ar    
  33 C33           -8.6849    -8.5605     4.0854 C.ar    
  34 O34          -10.1216    -9.7051     7.2258 O.3     
  35 C35          -10.3770   -11.0571     6.8401 C.3     
  36 C36            0.0350     4.1577     0.1040 C.3     
  37 C37            0.2740     4.9213    -1.2001 C.3     
  38 C38            1.6782     4.6111    -1.7227 C.3     
  39 C39           -1.4261     4.3188     0.5288 C.3     
  40 C40            0.9484     4.7164     1.1969 C.3     
  41 N41           -0.7220     4.5095    -2.1983 N.3     
  42 C42           -0.7009     5.4042    -3.3632 C.3     
  43 C43           -0.5149     3.1127    -2.6035 C.3     
  44 H44           -0.0430     0.0383     2.8740 H       
  45 H45            0.4234    -2.3654     2.6425 H       
  46 H46            1.4599    -1.7901    -1.4560 H       
  47 H47            0.9875     0.6148    -1.2499 H       
  48 H48            2.2819    -3.8935     0.7449 H       
  49 H49            0.4797    -6.5512     3.7449 H       
  50 H50           -3.7228    -4.3735     1.1453 H       
  51 H51           -4.1130    -7.1650     4.3815 H       
  52 H52           -1.6850    -7.3024     4.5845 H       
  53 H53            1.7344    -3.5585    -1.6502 H       
  54 H54            1.2597    -5.1861    -1.1079 H       
  55 H55            0.0251    -3.9199    -1.3100 H       
  56 H56           -5.9121    -6.9858     4.1409 H       
  57 H57           -8.1057    -5.3159     3.5276 H       
  58 H58           -8.0856    -6.6646     2.3662 H       
  59 H59           -8.4919    -5.7152     5.8891 H       
  60 H60           -9.5157    -7.1814     7.5806 H       
  61 H61           -9.4676   -10.4196     4.7919 H       
  62 H62           -8.4535    -8.9442     3.1027 H       
  63 H63          -11.0585   -11.0698     5.9895 H       
  64 H64           -9.4396   -11.5389     6.5619 H       
  65 H65          -10.8277   -11.5941     7.6748 H       
  66 H66            0.1831     5.9918    -1.0163 H       
  67 H67            2.4172     4.9166    -0.9820 H       
  68 H68            1.7691     3.5405    -1.9065 H       
  69 H69            1.8485     5.1550    -2.6518 H       
  70 H70           -1.5681     3.8786     1.5158 H       
  71 H71           -1.6797     5.3783     0.5635 H       
  72 H72           -2.0712     3.8141    -0.1904 H       
  73 H73            1.9892     4.6017     0.8943 H       
  74 H74            0.7286     5.7731     1.3490 H       
  75 H75            0.7780     4.1725     2.1260 H       
  76 H76            0.3001     5.4154    -3.7947 H       
  77 H77           -1.4134     5.0485    -4.1075 H       
  78 H78           -0.9736     6.4126    -3.0519 H       
  79 H79           -0.7247     2.4549    -1.7601 H       
  80 H80           -1.1848     2.8706    -3.4285 H       
  81 H81            0.5184     2.9763    -2.9224 H       
@<TRIPOS>BOND
   1    1    2 1
   2    1    8 2
   3    1    9 1
   4    2    3 ar
   5    2    7 ar
   6    3    4 ar
   7    3   44 1
   8    4    5 ar
   9    4   45 1
  10    5    6 ar
  11    5   10 1
  12    6    7 ar
  13    6   46 1
  14    7   47 1
  15    9   36 1
  16   10   13 1
  17   10   23 1
  18   10   48 1
  19   11   12 am
  20   11   20 1
  21   11   49 1
  22   12   13 am
  23   12   22 2
  24   13   14 am
  25   14   15 1
  26   14   21 2
  27   15   16 ar
  28   15   20 ar
  29   16   17 ar
  30   16   50 1
  31   17   18 ar
  32   17   24 1
  33   18   19 ar
  34   18   51 1
  35   19   20 ar
  36   19   52 1
  37   23   53 1
  38   23   54 1
  39   23   55 1
  40   24   25 am
  41   24   26 2
  42   25   27 1
  43   25   56 1
  44   27   28 1
  45   27   57 1
  46   27   58 1
  47   28   29 ar
  48   28   33 ar
  49   29   30 ar
  50   29   59 1
  51   30   31 ar
  52   30   60 1
  53   31   32 ar
  54   31   34 1
  55   32   33 ar
  56   32   61 1
  57   33   62 1
  58   34   35 1
  59   35   63 1
  60   35   64 1
  61   35   65 1
  62   36   37 1
  63   36   39 1
  64   36   40 1
  65   37   38 1
  66   37   41 1
  67   37   66 1
  68   38   67 1
  69   38   68 1
  70   38   69 1
  71   39   70 1
  72   39   71 1
  73   39   72 1
  74   40   73 1
  75   40   74 1
  76   40   75 1
  77   41   42 1
  78   41   43 1
  79   42   76 1
  80   42   77 1
  81   42   78 1
  82   43   79 1
  83   43   80 1
  84   43   81 1

#	End of record

