#	Name: ASD01150006
#	Creating user name:	WinNT
#	Creation time:	15. 06. 2019 19:03

#	Modifying user name:	WinNT
#	Modification time:	15. 06. 2019 19:03

#	Program:	/corina/corina34_cracker 3.40 0067  02.08.2006

@<TRIPOS>MOLECULE
ASD01150006
  50   52    0    0    0
SMALL
NO_CHARGES


@<TRIPOS>ATOM
   1 N1            -0.0159     1.3208     0.0093 N.ar    
   2 C2             0.0021    -0.0041     0.0020 C.ar    
   3 C3             1.2310    -0.6639    -0.0133 C.ar    
   4 C4             2.4009     0.1160    -0.0202 C.ar    
   5 N5             2.2879     1.4404    -0.0121 N.ar    
   6 C6             1.1033     2.0173     0.0024 C.ar    
   7 C7             1.8539    -2.8251     1.0627 C.ar    
   8 C8             1.9164    -4.2037     1.0498 C.ar    
   9 C9             1.4323    -4.9105    -0.0362 C.ar    
  10 C10            0.8835    -4.2409    -1.1151 C.ar    
  11 C11            0.8152    -2.8626    -1.1130 C.ar    
  12 C12            1.3015    -2.1451    -0.0214 C.ar    
  13 C13            6.0371    -0.4479     0.5540 C.3     
  14 C14            4.8580     0.3408    -0.0420 C.3     
  15 C15            5.2502     0.6910    -1.4923 C.3     
  16 C16            6.3041    -0.3794    -1.8699 C.3     
  17 C17            7.1048    -0.5495    -0.5549 C.3     
  18 N18            3.6475    -0.4844    -0.0349 N.pl3   
  19 Cl19          -1.4816    -0.9053     0.0119 Cl      
  20 C20            1.0255     3.5222     0.0112 C.3     
  21 C21            1.5035    -6.4158    -0.0443 C.3     
  22 C22            0.2276    -6.9901     0.5747 C.3     
  23 C23            0.2999    -8.5183     0.5665 C.3     
  24 C24           -0.9761    -9.0926     1.1855 C.3     
  25 H25            2.2281    -2.2744     1.9130 H       
  26 H26            2.3445    -4.7316     1.8891 H       
  27 H27            0.5076    -4.7979    -1.9606 H       
  28 H28            0.3868    -2.3408    -1.9560 H       
  29 H29            6.4431     0.0818     1.4158 H       
  30 H30            5.7088    -1.4447     0.8485 H       
  31 H31            4.6917     1.2533     0.5305 H       
  32 H32            4.3833     0.6213    -2.1494 H       
  33 H33            5.6863     1.6889    -1.5392 H       
  34 H34            5.8207    -1.3149    -2.1515 H       
  35 H35            6.9495    -0.0202    -2.6714 H       
  36 H36            7.8404     0.2481    -0.4504 H       
  37 H37            7.5913    -1.5245    -0.5279 H       
  38 H38            3.7199    -1.4517    -0.0405 H       
  39 H39            0.9970     3.8906    -1.0143 H       
  40 H40            0.1229     3.8363     0.5353 H       
  41 H41            1.9004     3.9283     0.5189 H       
  42 H42            1.6004    -6.7695    -1.0708 H       
  43 H43            2.3671    -6.7418     0.5354 H       
  44 H44            0.1307    -6.6364     1.6012 H       
  45 H45           -0.6360    -6.6641    -0.0049 H       
  46 H46            0.3967    -8.8720    -0.4599 H       
  47 H47            1.1635    -8.8443     1.1462 H       
  48 H48           -1.0729    -8.7389     2.2120 H       
  49 H49           -1.8397    -8.7666     0.6059 H       
  50 H50           -0.9246   -10.1813     1.1797 H       
@<TRIPOS>BOND
   1    1    2 ar
   2    1    6 ar
   3    2    3 ar
   4    2   19 1
   5    3    4 ar
   6    3   12 1
   7    4    5 ar
   8    4   18 1
   9    5    6 ar
  10    6   20 1
  11    7    8 ar
  12    7   12 ar
  13    7   25 1
  14    8    9 ar
  15    8   26 1
  16    9   10 ar
  17    9   21 1
  18   10   11 ar
  19   10   27 1
  20   11   12 ar
  21   11   28 1
  22   13   14 1
  23   13   17 1
  24   13   29 1
  25   13   30 1
  26   14   15 1
  27   14   18 1
  28   14   31 1
  29   15   16 1
  30   15   32 1
  31   15   33 1
  32   16   17 1
  33   16   34 1
  34   16   35 1
  35   17   36 1
  36   17   37 1
  37   18   38 1
  38   20   39 1
  39   20   40 1
  40   20   41 1
  41   21   22 1
  42   21   42 1
  43   21   43 1
  44   22   23 1
  45   22   44 1
  46   22   45 1
  47   23   24 1
  48   23   46 1
  49   23   47 1
  50   24   48 1
  51   24   49 1
  52   24   50 1

#	End of record

