#	Name: ASD04370046
#	Creating user name:	WinNT
#	Creation time:	15. 06. 2019 20:49

#	Modifying user name:	WinNT
#	Modification time:	15. 06. 2019 20:49

#	Program:	/corina/corina34_cracker 3.40 0067  02.08.2006

@<TRIPOS>MOLECULE
ASD04370046
  65   65    0    0    0
SMALL
NO_CHARGES


@<TRIPOS>ATOM
   1 C1             3.8868    -0.9724    -0.3481 C.2     
   2 C2             2.7732    -0.0276    -0.7197 C.3     
   3 C3             1.5564    -0.2995     0.1671 C.3     
   4 C4             0.3847     0.5696    -0.2942 C.3     
   5 O5             3.7470    -1.7369     0.5770 O.2     
   6 O6             5.0321    -0.9684    -1.0482 O.3     
   7 N7             1.8846     0.0217     1.5583 N.am    
   8 C8             2.1868     1.2888     1.9041 C.2     
   9 C9             2.4144     1.6409     3.3516 C.3     
  10 C10            2.7392     3.1314     3.4689 C.3     
  11 C11            2.9702     3.4889     4.9385 C.3     
  12 C12            3.2951     4.9794     5.0558 C.3     
  13 C13            3.5260     5.3370     6.5254 C.3     
  14 C14            3.8509     6.8275     6.6427 C.3     
  15 C15            4.0819     7.1850     8.1123 C.3     
  16 O16            2.2758     2.1456     1.0504 O.2     
  17 O17            4.3853     8.5771     8.2219 O.3     
  18 C18            4.6197     9.0172     9.5611 C.3     
  19 C19            4.9286    10.4922     9.5582 C.ar    
  20 C20            3.9026    11.4136     9.6809 C.ar    
  21 C21            4.1845    12.7700     9.6785 C.ar    
  22 C22            5.4967    13.2050     9.5535 C.ar    
  23 C23            6.5240    12.2796     9.4311 C.ar    
  24 C24            6.2385    10.9240     9.4387 C.ar    
  25 O25            5.7754    14.5362     9.5505 O.3     
  26 C26            6.0370    15.1471    10.8156 C.3     
  27 F27            7.2385    10.0229     9.3243 F       
  28 F28            7.8019    12.7006     9.3092 F       
  29 F29            3.1828    13.6687     9.7974 F       
  30 F30            2.6256    10.9897     9.8026 F       
  31 N31           -0.7438     0.4013     0.6311 N.3     
  32 C32           -1.7314     1.4748     0.4576 C.3     
  33 C33           -1.3669    -0.9189     0.4669 C.3     
  34 H34            3.1055     1.0005    -0.5754 H       
  35 H35            2.5022    -0.1785    -1.7647 H       
  36 H36            1.2802    -1.3512     0.0925 H       
  37 H37            0.6911     1.6155    -0.3071 H       
  38 H38            0.0809     0.2676    -1.2965 H       
  39 H39            5.7174    -1.5923    -0.7724 H       
  40 H40            1.8843    -0.6776     2.2305 H       
  41 H41            1.5145     1.4189     3.9253 H       
  42 H42            3.2473     1.0557     3.7413 H       
  43 H43            3.6390     3.3534     2.8952 H       
  44 H44            1.9063     3.7166     3.0792 H       
  45 H45            2.0704     3.2669     5.5122 H       
  46 H46            3.8031     2.9038     5.3282 H       
  47 H47            4.1949     5.2014     4.4821 H       
  48 H48            2.4621     5.5646     4.6661 H       
  49 H49            2.6262     5.1150     7.0991 H       
  50 H50            4.3590     4.7518     6.9151 H       
  51 H51            4.7507     7.0494     6.0690 H       
  52 H52            3.0179     7.4126     6.2530 H       
  53 H53            3.1820     6.9630     8.6860 H       
  54 H54            4.9148     6.5998     8.5020 H       
  55 H55            3.7311     8.8332    10.1648 H       
  56 H56            5.4638     8.4701     9.9808 H       
  57 H57            5.1668    15.0315    11.4618 H       
  58 H58            6.8997    14.6683    11.2788 H       
  59 H59            6.2440    16.2075    10.6711 H       
  60 H60           -2.1722     1.4057    -0.5369 H       
  61 H61           -2.5139     1.3736     1.2096 H       
  62 H62           -1.2410     2.4416     0.5713 H       
  63 H63           -0.6300    -1.6961     0.6694 H       
  64 H64           -2.1993    -1.0169     1.1638 H       
  65 H65           -1.7336    -1.0231    -0.5542 H       
@<TRIPOS>BOND
   1    1    2 1
   2    1    5 2
   3    1    6 1
   4    2    3 1
   5    2   34 1
   6    2   35 1
   7    3    4 1
   8    3    7 1
   9    3   36 1
  10    4   31 1
  11    4   37 1
  12    4   38 1
  13    6   39 1
  14    7    8 am
  15    7   40 1
  16    8    9 1
  17    8   16 2
  18    9   10 1
  19    9   41 1
  20    9   42 1
  21   10   11 1
  22   10   43 1
  23   10   44 1
  24   11   12 1
  25   11   45 1
  26   11   46 1
  27   12   13 1
  28   12   47 1
  29   12   48 1
  30   13   14 1
  31   13   49 1
  32   13   50 1
  33   14   15 1
  34   14   51 1
  35   14   52 1
  36   15   17 1
  37   15   53 1
  38   15   54 1
  39   17   18 1
  40   18   19 1
  41   18   55 1
  42   18   56 1
  43   19   20 ar
  44   19   24 ar
  45   20   21 ar
  46   20   30 1
  47   21   22 ar
  48   21   29 1
  49   22   23 ar
  50   22   25 1
  51   23   24 ar
  52   23   28 1
  53   24   27 1
  54   25   26 1
  55   26   57 1
  56   26   58 1
  57   26   59 1
  58   31   32 1
  59   31   33 1
  60   32   60 1
  61   32   61 1
  62   32   62 1
  63   33   63 1
  64   33   64 1
  65   33   65 1

#	End of record

