#	Name: ASD01140023
#	Creating user name:	WinNT
#	Creation time:	15. 06. 2019 18:59

#	Modifying user name:	WinNT
#	Modification time:	15. 06. 2019 18:59

#	Program:	/corina/corina34_cracker 3.40 0067  02.08.2006

@<TRIPOS>MOLECULE
ASD01140023
  53   56    0    0    0
SMALL
NO_CHARGES


@<TRIPOS>ATOM
   1 C1            -0.0168     1.3874     0.0097 C.ar    
   2 C2             0.0021    -0.0041     0.0020 C.ar    
   3 C3            -1.1914    -0.7028     0.0156 C.ar    
   4 C4            -2.4041    -0.0272     0.0371 C.ar    
   5 C5            -2.4247     1.3500     0.0335 C.ar    
   6 C6            -1.2271     2.0553     0.0306 C.ar    
   7 C7            -3.6662    -0.8522     0.0793 C.3     
   8 N8            -4.8275     0.0071    -0.1733 N.am    
   9 C9            -4.8741     1.3036     0.5227 C.3     
  10 C10           -3.7025     2.1474     0.0234 C.3     
  11 H11           -3.6172    -1.6291    -0.6837 H       
  12 C12           -3.8038    -1.5019     1.4577 C.3     
  13 C13           -5.0641    -2.3330     1.5176 C.2     
  14 C14           -4.6902    -3.5871     1.7579 C.2     
  15 C15           -3.2302    -3.6509     1.8650 C.2     
  16 O16           -2.7028    -2.4249     1.6888 O.3     
  17 O17           -2.5901    -4.6611     2.0814 O.2     
  18 H18           -3.8220    -0.7360     2.2330 H       
  19 O19            1.1496     2.0867     0.0023 O.3     
  20 O20            1.1863    -0.6724    -0.0192 O.3     
  21 C21           -5.8128    -0.3747    -1.0098 C.2     
  22 O22           -6.8671     0.4353    -1.2223 O.3     
  23 O23           -5.7497    -1.4500    -1.5722 O.2     
  24 C24           -7.8906    -0.0407    -2.1357 C.3     
  25 C25           -8.9830     0.9913    -2.2480 C.ar    
  26 C26           -8.9060     1.9769    -3.2142 C.ar    
  27 C27           -9.9081     2.9236    -3.3172 C.ar    
  28 C28          -10.9873     2.8843    -2.4543 C.ar    
  29 C29          -11.0647     1.8982    -1.4887 C.ar    
  30 C30          -10.0648     0.9489    -1.3885 C.ar    
  31 C31            1.0513     3.5123     0.0109 C.3     
  32 C32            1.1254    -2.1001    -0.0258 C.3     
  33 H33           -1.1799    -1.7827     0.0092 H       
  34 H34           -1.2422     3.1352     0.0368 H       
  35 H35           -5.8139     1.8085     0.2992 H       
  36 H36           -4.7849     1.1483     1.5979 H       
  37 H37           -3.5869     3.0180     0.6690 H       
  38 H38           -3.9088     2.4811    -0.9936 H       
  39 H39           -6.0757    -1.9769     1.3904 H       
  40 H40           -5.3598    -4.4285     1.8588 H       
  41 H41           -7.4499    -0.2117    -3.1179 H       
  42 H42           -8.3093    -0.9735    -1.7580 H       
  43 H43           -8.0628     2.0076    -3.8884 H       
  44 H44           -9.8476     3.6940    -4.0716 H       
  45 H45          -11.7699     3.6244    -2.5343 H       
  46 H46          -11.9078     1.8677    -0.8144 H       
  47 H47          -10.1253     0.1784    -0.6342 H       
  48 H48            2.0515     3.9455     0.0037 H       
  49 H49            0.5053     3.8442    -0.8722 H       
  50 H50            0.5222     3.8346     0.9077 H       
  51 H51            2.1366    -2.5068    -0.0431 H       
  52 H52            0.6099    -2.4460     0.8701 H       
  53 H53            0.5834    -2.4365    -0.9096 H       
@<TRIPOS>BOND
   1    1    2 ar
   2    1   19 1
   3    1    6 ar
   4    2    3 ar
   5    2   20 1
   6    3    4 ar
   7    3   33 1
   8    4    5 ar
   9    4    7 1
  10    5    6 ar
  11    5   10 1
  12    6   34 1
  13    7    8 1
  14    7   11 1
  15    7   12 1
  16    8    9 1
  17    8   21 am
  18    9   10 1
  19    9   35 1
  20    9   36 1
  21   10   37 1
  22   10   38 1
  23   12   13 1
  24   12   18 1
  25   12   16 1
  26   13   14 2
  27   13   39 1
  28   14   15 1
  29   14   40 1
  30   15   16 1
  31   15   17 2
  32   19   31 1
  33   20   32 1
  34   21   22 1
  35   21   23 2
  36   22   24 1
  37   24   25 1
  38   24   41 1
  39   24   42 1
  40   25   26 ar
  41   25   30 ar
  42   26   27 ar
  43   26   43 1
  44   27   28 ar
  45   27   44 1
  46   28   29 ar
  47   28   45 1
  48   29   30 ar
  49   29   46 1
  50   30   47 1
  51   31   48 1
  52   31   49 1
  53   31   50 1
  54   32   51 1
  55   32   52 1
  56   32   53 1

#	End of record

