#	Name: ASD06770020
#	Creating user name:	WinNT
#	Creation time:	15. 06. 2019 21:08

#	Modifying user name:	WinNT
#	Modification time:	15. 06. 2019 21:08

#	Program:	/corina/corina34_cracker 3.40 0067  02.08.2006

@<TRIPOS>MOLECULE
ASD06770020
  21   22    0    0    0
SMALL
NO_CHARGES


@<TRIPOS>ATOM
   1 O1            -0.0170     1.4050     0.0098 O.3     
   2 C2             0.0021    -0.0041     0.0020 C.3     
   3 C3             0.3714    -0.5526     1.3372 C.2     
   4 N4             1.2160    -0.0274     2.1846 N.am    
   5 C5             1.8644     1.1844     2.2866 C.ar    
   6 C6             1.8900     2.1759     1.3278 C.ar    
   7 C7             1.2001     2.0901     0.0018 C.3     
   8 C8             2.5950     3.3518     1.5740 C.ar    
   9 C9             3.2698     3.5474     2.7598 C.ar    
  10 C10            3.2467     2.5575     3.7265 C.ar    
  11 C11            2.5542     1.3941     3.4920 C.ar    
  12 O12           -0.1650    -1.5881     1.6704 O.2     
  13 Cl13           4.1416     5.0226     3.0380 Cl      
  14 H14           -0.9862    -0.3722    -0.2733 H       
  15 H15            0.7269    -0.3464    -0.7366 H       
  16 H16            1.4381    -0.6307     2.9109 H       
  17 H17            1.8686     1.5938    -0.7017 H       
  18 H18            1.0212     3.1033    -0.3580 H       
  19 H19            2.6136     4.1255     0.8207 H       
  20 H20            3.7711     2.6982     4.6601 H       
  21 H21            2.5398     0.6251     4.2503 H       
@<TRIPOS>BOND
   1    1    2 1
   2    1    7 1
   3    2    3 1
   4    2   14 1
   5    2   15 1
   6    3    4 am
   7    3   12 2
   8    4    5 1
   9    4   16 1
  10    5    6 ar
  11    5   11 ar
  12    6    7 1
  13    6    8 ar
  14    7   17 1
  15    7   18 1
  16    8    9 ar
  17    8   19 1
  18    9   10 ar
  19    9   13 1
  20   10   11 ar
  21   10   20 1
  22   11   21 1

#	End of record

