#	Name: ASD09490008
#	Creating user name:	WinNT
#	Creation time:	15. 06. 2019 21:22

#	Modifying user name:	WinNT
#	Modification time:	15. 06. 2019 21:22

#	Program:	/corina/corina34_cracker 3.40 0067  02.08.2006

@<TRIPOS>MOLECULE
ASD09490008
  40   42    0    0    0
SMALL
NO_CHARGES


@<TRIPOS>ATOM
   1 C1            -0.1777     1.8673     0.4512 C.3     
   2 C2            -0.1731     0.3504     0.7168 C.3     
   3 C3             1.3149    -0.0167     0.9216 C.3     
   4 C4             1.9524     1.3387     1.3181 C.3     
   5 N5             1.2273     2.3153     0.4729 N.am    
   6 C6             1.7455     3.3925    -0.1496 C.2     
   7 O7             1.0300     4.1108    -0.8151 O.2     
   8 C8             3.2141     3.7043    -0.0188 C.3     
   9 N9             3.5261     4.9150    -0.7823 N.am    
  10 C10            4.7882     5.3871    -0.8109 C.2     
  11 N11            5.0753     6.5009    -1.5134 N.am    
  12 O12            5.6678     4.8081    -0.2031 O.2     
  13 C13            6.3615     7.0454    -1.4650 C.ar    
  14 C14            7.4543     6.2078    -1.3957 C.ar    
  15 C15            6.5265     8.4357    -1.4933 C.ar    
  16 C16            7.7648     8.9953    -1.4477 C.ar    
  17 C17            8.8998     8.1714    -1.3710 C.ar    
  18 C18            8.7405     6.7604    -1.3476 C.ar    
  19 C19            9.8966     5.9611    -1.2759 C.ar    
  20 C20           10.1986     8.7002    -1.3221 C.ar    
  21 N21           11.2321     7.8935    -1.2512 N.ar    
  22 C22           11.1123     6.5730    -1.2321 C.ar    
  23 H23           -0.6176     2.0719    -0.5248 H       
  24 H24           -0.7426     2.3789     1.2305 H       
  25 H25           -0.7466     0.1215     1.6151 H       
  26 H26           -0.5807    -0.1854    -0.1404 H       
  27 H27            1.4257    -0.7451     1.7249 H       
  28 H28            1.7508    -0.3921    -0.0042 H       
  29 H29            1.7867     1.5471     2.3751 H       
  30 H30            3.0174     1.3453     1.0861 H       
  31 H31            3.4596     3.8635     1.0312 H       
  32 H32            3.7986     2.8698    -0.4060 H       
  33 H33            2.8244     5.3769    -1.2672 H       
  34 H34            4.3892     6.9247    -2.0524 H       
  35 H35            7.3201     5.1363    -1.3784 H       
  36 H36            5.6568     9.0733    -1.5526 H       
  37 H37            7.8753    10.0694    -1.4707 H       
  38 H38            9.8210     4.8839    -1.2557 H       
  39 H39           10.3481     9.7696    -1.3431 H       
  40 H40           12.0037     5.9658    -1.1771 H       
@<TRIPOS>BOND
   1    1    2 1
   2    1    5 1
   3    1   23 1
   4    1   24 1
   5    2    3 1
   6    2   25 1
   7    2   26 1
   8    3    4 1
   9    3   27 1
  10    3   28 1
  11    4    5 1
  12    4   29 1
  13    4   30 1
  14    5    6 am
  15    6    7 2
  16    6    8 1
  17    8    9 1
  18    8   31 1
  19    8   32 1
  20    9   10 am
  21    9   33 1
  22   10   11 am
  23   10   12 2
  24   11   13 1
  25   11   34 1
  26   13   15 ar
  27   13   14 ar
  28   14   18 ar
  29   14   35 1
  30   15   16 ar
  31   15   36 1
  32   16   17 ar
  33   16   37 1
  34   17   20 ar
  35   17   18 ar
  36   18   19 ar
  37   19   22 ar
  38   19   38 1
  39   20   21 ar
  40   20   39 1
  41   21   22 ar
  42   22   40 1

#	End of record

