#	Name: ASD00170214
#	Creating user name:	WinNT
#	Creation time:	15. 06. 2019 18:31

#	Modifying user name:	WinNT
#	Modification time:	15. 06. 2019 18:31

#	Program:	/corina/corina34_cracker 3.40 0067  02.08.2006

@<TRIPOS>MOLECULE
ASD00170214
  45   47    0    0    0
SMALL
NO_CHARGES


@<TRIPOS>ATOM
   1 C1             0.0584     1.3405    -0.0676 C.2     
   2 C2            -0.0821    -0.1202     0.0425 C.2     
   3 C3            -1.3885    -0.5290     0.1153 C.2     
   4 C4            -2.3250     0.5790     0.0664 C.2     
   5 S5            -1.4649     2.1019    -0.0653 S.3     
   6 C6             1.0572    -1.0427     0.0706 C.ar    
   7 C7             1.3454    -1.7755     1.2345 C.ar    
   8 C8             2.4170    -2.6394     1.2505 C.ar    
   9 C9             3.2110    -2.7874     0.1236 C.ar    
  10 C10            2.9352    -2.0684    -1.0299 C.ar    
  11 C11            1.8648    -1.2044    -1.0683 C.ar    
  12 N12           -3.6596     0.4560     0.1194 N.pl3   
  13 C13           -1.7967    -1.9367     0.2297 C.2     
  14 O14           -2.0227    -2.6654    -0.8818 O.3     
  15 O15           -1.9305    -2.4435     1.3264 O.2     
  16 C16            1.2902     2.0196    -0.1569 C.ar    
  17 C17            1.4854     3.0141    -1.1406 C.ar    
  18 C18            2.6828     3.6646    -1.2164 C.ar    
  19 C19            3.7066     3.3525    -0.3317 C.ar    
  20 C20            3.5274     2.3768     0.6400 C.ar    
  21 C21            2.3378     1.7154     0.7402 C.ar    
  22 C22           -2.4228    -4.0484    -0.6932 C.3     
  23 C23           -2.6322    -4.7093    -2.0572 C.3     
  24 C24            2.7284    -3.4265     2.4973 C.3     
  25 F25            2.0441    -4.6462     2.4619 F       
  26 F26            4.1050    -3.6659     2.5659 F       
  27 F27            2.3251    -2.6981     3.6216 F       
  28 N28            5.0004     4.0658    -0.4255 N.pl3   
  29 O29            5.1766     4.9919    -1.3452 O.2     
  30 O30            5.9753     3.7742     0.4106 O.2     
  31 H31            0.7284    -1.6610     2.1135 H       
  32 H32            4.0501    -3.4670     0.1443 H       
  33 H33            3.5599    -2.1905    -1.9024 H       
  34 H34            1.6517    -0.6454    -1.9675 H       
  35 H35           -4.0629    -0.4229     0.1962 H       
  36 H36           -4.2214     1.2458     0.0810 H       
  37 H37            0.6908     3.2584    -1.8301 H       
  38 H38            2.8348     4.4253    -1.9678 H       
  39 H39            4.3315     2.1432     1.3221 H       
  40 H40            2.2007     0.9571     1.4970 H       
  41 H41           -1.6440    -4.5808    -0.1472 H       
  42 H42           -3.3529    -4.0834    -0.1259 H       
  43 H43           -3.4110    -4.1769    -2.6031 H       
  44 H44           -1.7021    -4.6742    -2.6244 H       
  45 H45           -2.9325    -5.7474    -1.9156 H       
@<TRIPOS>BOND
   1    1    2 2
   2    1   16 1
   3    1    5 1
   4    2    3 1
   5    2    6 1
   6    3    4 2
   7    3   13 1
   8    4    5 1
   9    4   12 1
  10    6    7 ar
  11    6   11 ar
  12    7    8 ar
  13    7   31 1
  14    8    9 ar
  15    8   24 1
  16    9   10 ar
  17    9   32 1
  18   10   11 ar
  19   10   33 1
  20   11   34 1
  21   12   35 1
  22   12   36 1
  23   13   14 1
  24   13   15 2
  25   14   22 1
  26   16   17 ar
  27   16   21 ar
  28   17   18 ar
  29   17   37 1
  30   18   19 ar
  31   18   38 1
  32   19   20 ar
  33   19   28 1
  34   20   21 ar
  35   20   39 1
  36   21   40 1
  37   22   23 1
  38   22   41 1
  39   22   42 1
  40   23   43 1
  41   23   44 1
  42   23   45 1
  43   24   25 1
  44   24   26 1
  45   24   27 1
  46   28   29 2
  47   28   30 2

#	End of record

