#	Name: ASD03330221
#	Creating user name:	WinNT
#	Creation time:	15. 06. 2019 20:36

#	Modifying user name:	WinNT
#	Modification time:	15. 06. 2019 20:36

#	Program:	/corina/corina34_cracker 3.40 0067  02.08.2006

@<TRIPOS>MOLECULE
ASD03330221
  54   56    0    0    0
SMALL
NO_CHARGES


@<TRIPOS>ATOM
   1 C1            -0.6672     0.5736     0.2359 C.3     
   2 N2            -0.5952    -0.8815     0.0429 N.3     
   3 C3            -0.0270    -1.2169    -1.2753 C.3     
   4 C4             1.2481    -0.4322    -1.4454 C.2     
   5 N5             1.5875     0.6363    -0.6677 N.pl3   
   6 C6             0.7450     1.1448     0.4183 C.3     
   7 C7             2.2510    -0.6107    -2.3405 C.2     
   8 N8             3.1867     0.3373    -2.1037 N.2     
   9 C9             2.7938     1.0885    -1.0993 C.2     
  10 C10            3.5395     2.2344    -0.5342 C.ar    
  11 C11            4.6011     2.7974    -1.2433 C.ar    
  12 C12            5.2928     3.8657    -0.7114 C.ar    
  13 C13            4.9358     4.3792     0.5240 C.ar    
  14 C14            3.8831     3.8245     1.2323 C.ar    
  15 C15            3.1802     2.7599     0.7074 C.ar    
  16 C16            2.3113    -1.6506    -3.3828 C.2     
  17 O17            1.4027    -2.4512    -3.4963 O.2     
  18 O18            5.7272    -2.2018    -5.3340 O.2     
  19 C19            4.8718    -3.0178    -5.6048 C.2     
  20 C20            3.4330    -2.7484    -5.2465 C.3     
  21 N21            3.3731    -1.7146    -4.2103 N.am    
  22 C22            2.6792    -2.2696    -6.4889 C.3     
  23 C23            2.7405    -3.3499    -7.5706 C.3     
  24 C24            1.2188    -1.9947    -6.1248 C.3     
  25 C25            3.3245    -0.9854    -7.0135 C.3     
  26 N26            5.2081    -4.1657    -6.2260 N.am    
  27 C27            6.5917    -4.3897    -6.6523 C.3     
  28 Cl28           5.8116     5.7231     1.1878 Cl      
  29 H29           -1.1336     1.0320    -0.6361 H       
  30 H30           -1.2637     0.7925     1.1216 H       
  31 H31           -0.0700    -1.3191     0.7850 H       
  32 H32            0.1881    -2.2844    -1.3231 H       
  33 H33           -0.7333    -0.9472    -2.0605 H       
  34 H34            0.7095     2.2335     0.3773 H       
  35 H35            1.1499     0.8253     1.3785 H       
  36 H36            4.8808     2.3973    -2.2067 H       
  37 H37            6.1147     4.3023    -1.2594 H       
  38 H38            3.6092     4.2288     2.1956 H       
  39 H39            2.3591     2.3283     1.2605 H       
  40 H40            2.9740    -3.6639    -4.8734 H       
  41 H41            4.0977    -1.0761    -4.1198 H       
  42 H42            2.2668    -4.2600    -7.2024 H       
  43 H43            2.2169    -3.0025    -8.4612 H       
  44 H44            3.7815    -3.5570    -7.8187 H       
  45 H45            1.1751    -1.2251    -5.3542 H       
  46 H46            0.6818    -1.6536    -7.0099 H       
  47 H47            0.7591    -2.9096    -5.7511 H       
  48 H48            4.3649    -1.1812    -7.2729 H       
  49 H49            2.7874    -0.6443    -7.8986 H       
  50 H50            3.2808    -0.2157    -6.2429 H       
  51 H51            4.5340    -4.8434    -6.3908 H       
  52 H52            6.8847    -3.6126    -7.3582 H       
  53 H53            7.2492    -4.3581    -5.7836 H       
  54 H54            6.6705    -5.3651    -7.1324 H       
@<TRIPOS>BOND
   1    1    2 1
   2    1    6 1
   3    1   29 1
   4    1   30 1
   5    2    3 1
   6    2   31 1
   7    3    4 1
   8    3   32 1
   9    3   33 1
  10    4    5 1
  11    4    7 2
  12    5    6 1
  13    5    9 1
  14    6   34 1
  15    6   35 1
  16    7    8 1
  17    7   16 1
  18    8    9 2
  19    9   10 1
  20   10   11 ar
  21   10   15 ar
  22   11   12 ar
  23   11   36 1
  24   12   13 ar
  25   12   37 1
  26   13   14 ar
  27   13   28 1
  28   14   15 ar
  29   14   38 1
  30   15   39 1
  31   16   17 2
  32   16   21 am
  33   18   19 2
  34   19   26 am
  35   19   20 1
  36   20   21 1
  37   20   22 1
  38   20   40 1
  39   21   41 1
  40   22   23 1
  41   22   24 1
  42   22   25 1
  43   23   42 1
  44   23   43 1
  45   23   44 1
  46   24   45 1
  47   24   46 1
  48   24   47 1
  49   25   48 1
  50   25   49 1
  51   25   50 1
  52   26   27 1
  53   26   51 1
  54   27   52 1
  55   27   53 1
  56   27   54 1

#	End of record

