#	Name: ASD05143082
#	Creating user name:	WinNT
#	Creation time:	15. 06. 2019 20:57

#	Modifying user name:	WinNT
#	Modification time:	15. 06. 2019 20:57

#	Program:	/corina/corina34_cracker 3.40 0067  02.08.2006

@<TRIPOS>MOLECULE
ASD05143082
 145  148    0    0    0
SMALL
NO_CHARGES


@<TRIPOS>ATOM
   1 C1             1.8359     3.5262     0.8189 C.2     
   2 C2             2.3929     2.1260     0.8338 C.3     
   3 N3             2.6531     4.5787     1.0214 N.am    
   4 O4             0.6532     3.7063     0.6198 O.2     
   5 C5             2.1116     5.9399     1.0069 C.3     
   6 C6             1.4767     6.2218    -0.3563 C.3     
   7 C7             1.0677     6.0768     2.0852 C.2     
   8 C8             2.5600     6.2056    -1.4366 C.3     
   9 C9             1.9251     6.4875    -2.7998 C.3     
  10 N10            2.9624     6.4720    -3.8342 N.pl3   
  11 C11            2.6270     6.7019    -5.1475 C.2     
  12 N12            3.6005     6.6874    -6.1183 N.pl3   
  13 N13            1.3861     6.9335    -5.4723 N.2     
  14 O14            0.5393     5.0875     2.5467 O.2     
  15 N15            0.7215     7.2985     2.5367 N.am    
  16 C16           -0.2933     7.4315     3.5850 C.3     
  17 C17           -0.0764     8.7438     4.3411 C.3     
  18 C18            1.3820     8.8364     4.7938 C.3     
  19 C19            1.8961    10.2598     4.5696 C.3     
  20 N20            1.5342    10.7034     3.2166 N.3     
  21 C21            2.2087    11.9634     2.8771 C.3     
  22 C22            1.3471    12.7519     1.8887 C.3     
  23 C23            2.2166    13.7775     1.1587 C.3     
  24 C24            1.3443    14.9451     0.6929 C.3     
  25 N25            0.9073    14.6912    -0.6943 N.am    
  26 C26            2.1414    16.2229     0.7451 C.2     
  27 N27            2.3114    16.8637     1.9186 N.am    
  28 O28            2.6299    16.6748    -0.2688 O.2     
  29 C29           -0.4304    14.5329    -0.8928 C.2     
  30 O30           -1.2029    14.5939     0.0402 O.2     
  31 C31           -0.9365    14.2812    -2.2899 C.3     
  32 N32           -2.3255    13.7752    -2.2087 N.am    
  33 C33           -0.9118    15.5867    -3.0874 C.3     
  34 C34           -2.5074    12.4954    -2.6515 C.2     
  35 O35           -1.5706    11.8472    -3.0675 O.2     
  36 C36           -3.8926    11.9039    -2.6130 C.3     
  37 N37           -3.7885    10.4363    -2.7390 N.am    
  38 C38           -4.5645    12.2579    -1.2848 C.3     
  39 C39           -4.2739     9.7004    -1.7019 C.2     
  40 O40           -4.7628    10.2477    -0.7363 O.2     
  41 C41           -4.1964     8.1970    -1.7690 C.3     
  42 C42           -1.3009    15.3096    -4.5167 C.2     
  43 C43           -2.6631    15.2363    -5.0504 C.ar    
  44 C44           -2.5285    14.9577    -6.4227 C.ar    
  45 N45           -1.1804    14.8708    -6.6891 N.pl3   
  46 C46           -0.4648    15.0889    -5.5435 C.2     
  47 C47           -3.9340    15.3801    -4.4901 C.ar    
  48 C48           -5.0418    15.2493    -5.2790 C.ar    
  49 C49           -4.9142    14.9739    -6.6337 C.ar    
  50 C50           -3.6702    14.8290    -7.2072 C.ar    
  51 N51           -4.3731     7.6534    -0.4027 N.am    
  52 C52           -2.8308     7.7770    -2.3164 C.3     
  53 C53           -2.7310     8.1651    -3.7691 C.ar    
  54 C54           -1.8146     9.1205    -4.1674 C.ar    
  55 C55           -1.7218     9.4768    -5.4994 C.ar    
  56 C56           -2.5471     8.8766    -6.4352 C.ar    
  57 C57           -3.4645     7.9198    -6.0351 C.ar    
  58 C58           -3.5519     7.5613    -4.7033 C.ar    
  59 C59           -1.6645     7.4327     2.9595 C.2     
  60 O60           -2.4535     8.3194     3.2087 O.2     
  61 C61           -6.0497    11.8968    -1.3524 C.3     
  62 C62           -6.6890    12.1081     0.0215 C.3     
  63 N63           -8.1111    11.7623    -0.0431 N.pl3   
  64 C64           -8.8974    11.8739     1.0791 C.2     
  65 N65          -10.2320    11.5493     1.0184 N.pl3   
  66 N66           -8.3776    12.2872     2.2006 N.2     
  67 N67           -2.0046     6.4243     2.1102 N.am    
  68 C68           -3.3594     6.4817     1.5259 C.3     
  69 C69           -3.2668     7.0624     0.1385 C.2     
  70 O70           -2.2289     7.0058    -0.4864 O.2     
  71 F71           -2.4575     9.2245    -7.7376 F       
  72 C72           -4.2549     7.3679     2.3939 C.3     
  73 C73           -4.2272     6.8703     3.8161 C.2     
  74 O74           -3.5571     5.9021     4.1068 O.2     
  75 N75           -4.9470     7.5012     4.7650 N.am    
  76 H76            2.8453     1.9252     1.8049 H       
  77 H77            1.5885     1.4131     0.6532 H       
  78 H78            3.1479     2.0271     0.0539 H       
  79 H79            3.5997     4.4350     1.1766 H       
  80 H80            2.9161     6.6529     1.1874 H       
  81 H81            0.7330     5.4558    -0.5760 H       
  82 H82            0.9963     7.2000    -0.3381 H       
  83 H83            3.3037     6.9716    -1.2168 H       
  84 H84            3.0404     5.2274    -1.4548 H       
  85 H85            1.1814     5.7215    -3.0196 H       
  86 H86            1.4447     7.4658    -2.7816 H       
  87 H87            3.8858     6.2996    -3.5925 H       
  88 H88            4.5239     6.5150    -5.8766 H       
  89 H89            3.3638     6.8495    -7.0449 H       
  90 H90            1.1495     7.0957    -6.3990 H       
  91 H91            1.1441     8.0897     2.1677 H       
  92 H92           -0.2111     6.5947     4.2785 H       
  93 H93           -0.3074     9.5834     3.6855 H       
  94 H94           -0.7300     8.7730     5.2129 H       
  95 H95            1.4502     8.5880     5.8529 H       
  96 H96            1.9867     8.1367     4.2168 H       
  97 H97            1.4464    10.9284     5.3037 H       
  98 H98            2.9804    10.2761     4.6795 H       
  99 H99            1.7391     9.9884     2.5348 H       
 100 H100           2.3550    12.5527     3.7823 H       
 101 H101           3.1761    11.7471     2.4238 H       
 102 H102           0.9069    12.0672     1.1638 H       
 103 H103           0.5536    13.2677     2.4295 H       
 104 H104           2.9877    14.1470     1.8347 H       
 105 H105           2.6857    13.3070     0.2946 H       
 106 H106           0.4718    15.0302     1.3407 H       
 107 H107           1.5409    14.6400    -1.4270 H       
 108 H108           1.9207    16.5023     2.7295 H       
 109 H109           2.8245    17.6862     1.9522 H       
 110 H110          -0.3052    13.5395    -2.7792 H       
 111 H111          -3.0550    14.3142    -1.8651 H       
 112 H112          -1.6168    16.2934    -2.6495 H       
 113 H113           0.0920    16.0105    -3.0598 H       
 114 H114          -4.4821    12.3004    -3.4397 H       
 115 H115          -3.3947    10.0182    -3.5207 H       
 116 H116          -4.0910    11.6989    -0.4777 H       
 117 H117          -4.4586    13.3265    -1.0975 H       
 118 H118          -4.9859     7.8186    -2.4183 H       
 119 H119          -0.7953    14.6863    -7.5601 H       
 120 H120           0.6129    15.0775    -5.4740 H       
 121 H121          -4.0408    15.5937    -3.4369 H       
 122 H122          -6.0245    15.3607    -4.8452 H       
 123 H123          -5.7993    14.8730    -7.2443 H       
 124 H124          -3.5814    14.6151    -8.2621 H       
 125 H125          -5.2154     7.7131     0.0746 H       
 126 H126          -2.0437     8.2769    -1.7519 H       
 127 H127          -2.7173     6.6972    -2.2201 H       
 128 H128          -1.1712     9.5888    -3.4373 H       
 129 H129          -1.0060    10.2235    -5.8103 H       
 130 H130          -4.1088     7.4510    -6.7642 H       
 131 H131          -4.2674     6.8150    -4.3910 H       
 132 H132          -6.5454    12.5332    -2.0855 H       
 133 H133          -6.1568    10.8526    -1.6462 H       
 134 H134          -6.1933    11.4718     0.7547 H       
 135 H135          -6.5819    13.1523     0.3154 H       
 136 H136          -8.4980    11.4547    -0.8778 H       
 137 H137         -10.6189    11.2417     0.1838 H       
 138 H138         -10.7868    11.6280     1.8102 H       
 139 H139          -8.9324    12.3659     2.9924 H       
 140 H140          -1.3887     5.7050     1.9002 H       
 141 H141          -3.7775     5.4764     1.4739 H       
 142 H142          -3.8911     8.3949     2.3612 H       
 143 H143          -5.2769     7.3323     2.0164 H       
 144 H144          -5.4830     8.2755     4.5324 H       
 145 H145          -4.9292     7.1809     5.6804 H       
@<TRIPOS>BOND
   1    1    2 1
   2    1    3 am
   3    1    4 2
   4    2   76 1
   5    2   77 1
   6    2   78 1
   7    3    5 1
   8    3   79 1
   9    5    6 1
  10    5    7 1
  11    5   80 1
  12    6    8 1
  13    6   81 1
  14    6   82 1
  15    7   14 2
  16    7   15 am
  17    8    9 1
  18    8   83 1
  19    8   84 1
  20    9   10 1
  21    9   85 1
  22    9   86 1
  23   10   11 1
  24   10   87 1
  25   11   12 1
  26   11   13 2
  27   12   88 1
  28   12   89 1
  29   13   90 1
  30   15   16 1
  31   15   91 1
  32   16   17 1
  33   16   59 1
  34   16   92 1
  35   17   18 1
  36   17   93 1
  37   17   94 1
  38   18   19 1
  39   18   95 1
  40   18   96 1
  41   19   20 1
  42   19   97 1
  43   19   98 1
  44   20   21 1
  45   20   99 1
  46   21   22 1
  47   21  100 1
  48   21  101 1
  49   22   23 1
  50   22  102 1
  51   22  103 1
  52   23   24 1
  53   23  104 1
  54   23  105 1
  55   24   25 1
  56   24   26 1
  57   24  106 1
  58   25   29 am
  59   25  107 1
  60   26   27 am
  61   26   28 2
  62   27  108 1
  63   27  109 1
  64   29   30 2
  65   29   31 1
  66   31   32 1
  67   31   33 1
  68   31  110 1
  69   32   34 am
  70   32  111 1
  71   33   42 1
  72   33  112 1
  73   33  113 1
  74   34   35 2
  75   34   36 1
  76   36   37 1
  77   36   38 1
  78   36  114 1
  79   37   39 am
  80   37  115 1
  81   38   61 1
  82   38  116 1
  83   38  117 1
  84   39   40 2
  85   39   41 1
  86   41   51 1
  87   41   52 1
  88   41  118 1
  89   42   43 1
  90   42   46 2
  91   43   44 ar
  92   43   47 ar
  93   44   45 1
  94   44   50 ar
  95   45   46 1
  96   45  119 1
  97   46  120 1
  98   47   48 ar
  99   47  121 1
 100   48   49 ar
 101   48  122 1
 102   49   50 ar
 103   49  123 1
 104   50  124 1
 105   51   69 am
 106   51  125 1
 107   52   53 1
 108   52  126 1
 109   52  127 1
 110   53   54 ar
 111   53   58 ar
 112   54   55 ar
 113   54  128 1
 114   55   56 ar
 115   55  129 1
 116   56   57 ar
 117   56   71 1
 118   57   58 ar
 119   57  130 1
 120   58  131 1
 121   59   60 2
 122   59   67 am
 123   61   62 1
 124   61  132 1
 125   61  133 1
 126   62   63 1
 127   62  134 1
 128   62  135 1
 129   63   64 1
 130   63  136 1
 131   64   65 1
 132   64   66 2
 133   65  137 1
 134   65  138 1
 135   66  139 1
 136   67   68 1
 137   67  140 1
 138   68   69 1
 139   68   72 1
 140   68  141 1
 141   69   70 2
 142   72   73 1
 143   72  142 1
 144   72  143 1
 145   73   74 2
 146   73   75 am
 147   75  144 1
 148   75  145 1

#	End of record

