#	Name: ASD01883932
#	Creating user name:	WinNT
#	Creation time:	15. 06. 2019 19:47

#	Modifying user name:	WinNT
#	Modification time:	15. 06. 2019 19:47

#	Program:	/corina/corina34_cracker 3.40 0067  02.08.2006

@<TRIPOS>MOLECULE
ASD01883932
  54   56    0    0    0
SMALL
NO_CHARGES


@<TRIPOS>ATOM
   1 C1            -0.0170     1.4024     0.0098 C.2     
   2 C2             0.0021    -0.0041     0.0020 C.2     
   3 C3            -1.2248    -0.6972     0.0105 C.2     
   4 C4            -2.3888    -0.0096     0.0258 C.2     
   5 N5            -2.4080     1.3483     0.0328 N.am    
   6 C6            -1.2688     2.0651     0.0312 C.2     
   7 C7            -3.6953     2.0474     0.0489 C.3     
   8 C8            -4.1294     2.2836     1.4969 C.3     
   9 C9            -5.4738     3.0137     1.5137 C.3     
  10 C10           -6.5518     2.1113     0.9100 C.3     
  11 C11           -5.8479     3.3603     2.9562 C.3     
  12 O12           -1.3143     3.2835     0.0387 O.2     
  13 C13            1.2047     2.1494     0.0021 C.1     
  14 N14            2.1739     2.7420    -0.0040 N.1     
  15 C15            1.2826    -0.7398    -0.0152 C.ar    
  16 C16            1.6463    -1.5377     1.0732 C.ar    
  17 C17            2.8419    -2.2233     1.0535 C.ar    
  18 C18            3.6868    -2.1204    -0.0499 C.ar    
  19 C19            3.3263    -1.3263    -1.1336 C.ar    
  20 C20            2.1302    -0.6440    -1.1220 C.ar    
  21 N21            4.8953    -2.8140    -0.0675 N.pl3   
  22 C22            5.7846    -2.7068    -1.2268 C.3     
  23 C23            7.0143    -3.5467    -0.9959 C.ar    
  24 F24            3.1951    -2.9950     2.1047 F       
  25 C25            7.0309    -4.8668    -1.3951 C.ar    
  26 C26            8.1715    -5.6434    -1.1808 C.ar    
  27 C27            9.2881    -5.0769    -0.5631 C.ar    
  28 C28            9.2579    -3.7551    -0.1689 C.ar    
  29 C29            8.1265    -2.9900    -0.3890 C.ar    
  30 C30            8.1957    -7.0149    -1.5922 C.1     
  31 N31            8.2148    -8.1028    -1.9186 N.1     
  32 H32           -1.2353    -1.7771     0.0045 H       
  33 H33           -3.3229    -0.5516     0.0322 H       
  34 H34           -3.5948     3.0055    -0.4611 H       
  35 H35           -4.4443     1.4413    -0.4607 H       
  36 H36           -4.2298     1.3255     2.0069 H       
  37 H37           -3.3803     2.8897     2.0065 H       
  38 H38           -5.3971     3.9298     0.9281 H       
  39 H39           -7.5096     2.6314     0.9220 H       
  40 H40           -6.2853     1.8643    -0.1177 H       
  41 H41           -6.6285     1.1951     1.4956 H       
  42 H42           -5.0799     4.0032     3.3863 H       
  43 H43           -6.8057     3.8805     2.9681 H       
  44 H44           -5.9246     2.4442     3.5418 H       
  45 H45            0.9916    -1.6167     1.9285 H       
  46 H46            3.9834    -1.2482    -1.9871 H       
  47 H47            1.8514    -0.0281    -1.9643 H       
  48 H48            5.1477    -3.3678     0.6878 H       
  49 H49            5.2649    -3.0606    -2.1172 H       
  50 H50            6.0763    -1.6658    -1.3659 H       
  51 H51            6.1636    -5.2989    -1.8720 H       
  52 H52           10.1733    -5.6720    -0.3941 H       
  53 H53           10.1208    -3.3157     0.3094 H       
  54 H54            8.1081    -1.9558    -0.0784 H       
@<TRIPOS>BOND
   1    1    2 2
   2    1   13 1
   3    1    6 1
   4    2    3 1
   5    2   15 1
   6    3    4 2
   7    3   32 1
   8    4    5 1
   9    4   33 1
  10    5    7 1
  11    5    6 am
  12    6   12 2
  13    7    8 1
  14    7   34 1
  15    7   35 1
  16    8    9 1
  17    8   36 1
  18    8   37 1
  19    9   10 1
  20    9   11 1
  21    9   38 1
  22   10   39 1
  23   10   40 1
  24   10   41 1
  25   11   42 1
  26   11   43 1
  27   11   44 1
  28   13   14 3
  29   15   16 ar
  30   15   20 ar
  31   16   17 ar
  32   16   45 1
  33   17   18 ar
  34   17   24 1
  35   18   19 ar
  36   18   21 1
  37   19   20 ar
  38   19   46 1
  39   20   47 1
  40   21   22 1
  41   21   48 1
  42   22   23 1
  43   22   49 1
  44   22   50 1
  45   23   25 ar
  46   23   29 ar
  47   25   26 ar
  48   25   51 1
  49   26   30 1
  50   26   27 ar
  51   27   28 ar
  52   27   52 1
  53   28   29 ar
  54   28   53 1
  55   29   54 1
  56   30   31 3

#	End of record

