#	Name: ASD01028319
#	Creating user name:	WinNT
#	Creation time:	15. 06. 2019 18:56

#	Modifying user name:	WinNT
#	Modification time:	15. 06. 2019 18:56

#	Program:	/corina/corina34_cracker 3.40 0067  02.08.2006

@<TRIPOS>MOLECULE
ASD01028319
  62   67    0    0    0
SMALL
NO_CHARGES


@<TRIPOS>ATOM
   1 C1            -0.0171     1.4118     0.0098 C.ar    
   2 C2             0.0021    -0.0041     0.0020 C.ar    
   3 C3             1.2105     2.1116     0.0018 C.ar    
   4 C4             2.3793     1.3714    -0.0133 C.ar    
   5 C5             2.3160    -0.0162    -0.0202 C.ar    
   6 N6             1.1704    -0.6565    -0.0123 N.ar    
   7 O7             1.2420     3.4670     0.0084 O.3     
   8 C8             2.5299     4.0861    -0.0005 C.3     
   9 C9             2.3673     5.5842     0.0086 C.2     
  10 N10            2.2914     6.3713     1.1040 N.pl3   
  11 C11            2.1482     7.6568     0.6381 C.2     
  12 N12            2.1444     7.5870    -0.6830 N.2     
  13 N13            2.2796     6.3587    -1.0440 N.2     
  14 N14            2.3295     6.1247     2.4778 N.2     
  15 C15            2.2292     7.1156     3.3360 C.2     
  16 C16            2.0809     8.4458     2.8891 C.2     
  17 C17            2.0413     8.7172     1.5579 C.2     
  18 C18            2.2721     6.8319     4.7916 C.ar    
  19 C19            2.4178     5.5222     5.2448 C.ar    
  20 C20            2.4575     5.2640     6.6000 C.ar    
  21 C21            2.3530     6.3025     7.5078 C.ar    
  22 C22            2.2081     7.6044     7.0636 C.ar    
  23 C23            2.1725     7.8747     5.7106 C.ar    
  24 C24           -1.2152    -0.7043     0.0100 C.ar    
  25 C25           -2.4012    -0.0066     0.0251 C.ar    
  26 C26           -2.4085     1.3917     0.0326 C.ar    
  27 O27           -3.5786    -0.6840     0.0324 O.3     
  28 C28           -1.2431     2.0938     0.0310 C.ar    
  29 C29           -4.7758     0.0961     0.0481 C.3     
  30 C30            2.3965     6.0142     8.9864 C.3     
  31 N31            3.7875     6.0693     9.4553 N.3     
  32 C32            3.8506     6.0295    10.9235 C.3     
  33 C33            5.3162     6.0286    11.3661 C.3     
  34 O34            5.9725     7.1792    10.8270 O.3     
  35 C35            5.9308     7.2496     9.3992 C.3     
  36 C36            4.4714     7.2629     8.9367 C.3     
  37 H37            3.3370     1.8705    -0.0202 H       
  38 H38            3.2348    -0.5838    -0.0321 H       
  39 H39            3.0883     3.7758     0.8827 H       
  40 H40            3.0716     3.7849    -0.8972 H       
  41 H41            1.9990     9.2495     3.6059 H       
  42 H42            1.9278     9.7333     1.2102 H       
  43 H43            2.4992     4.7106     4.5369 H       
  44 H44            2.5701     4.2493     6.9524 H       
  45 H45            2.1266     8.4113     7.7768 H       
  46 H46            2.0594     8.8916     5.3649 H       
  47 H47           -1.2205    -1.7843     0.0039 H       
  48 H48           -3.3501     1.9205     0.0445 H       
  49 H49           -1.2617     3.1736     0.0369 H       
  50 H50           -4.7913     0.7199     0.9418 H       
  51 H51           -4.8081     0.7300    -0.8381 H       
  52 H52           -5.6412    -0.5666     0.0525 H       
  53 H53            1.8038     6.7579     9.5191 H       
  54 H54            1.9885     5.0212     9.1751 H       
  55 H55            3.3472     6.9051    11.3333 H       
  56 H56            3.3608     5.1251    11.2844 H       
  57 H57            5.3677     6.0567    12.4546 H       
  58 H58            5.8061     5.1258    11.0012 H       
  59 H59            6.4268     8.1609     9.0651 H       
  60 H60            6.4386     6.3824     8.9771 H       
  61 H61            4.4349     7.2588     7.8473 H       
  62 H62            3.9779     8.1582     9.3147 H       
@<TRIPOS>BOND
   1    1    2 ar
   2    1    3 ar
   3    1   28 ar
   4    2   24 ar
   5    2    6 ar
   6    3    4 ar
   7    3    7 1
   8    4    5 ar
   9    4   37 1
  10    5    6 ar
  11    5   38 1
  12    7    8 1
  13    8    9 1
  14    8   39 1
  15    8   40 1
  16    9   10 1
  17    9   13 2
  18   10   11 1
  19   10   14 1
  20   11   12 2
  21   11   17 1
  22   12   13 1
  23   14   15 2
  24   15   16 1
  25   15   18 1
  26   16   17 2
  27   16   41 1
  28   17   42 1
  29   18   19 ar
  30   18   23 ar
  31   19   20 ar
  32   19   43 1
  33   20   21 ar
  34   20   44 1
  35   21   22 ar
  36   21   30 1
  37   22   23 ar
  38   22   45 1
  39   23   46 1
  40   24   25 ar
  41   24   47 1
  42   25   26 ar
  43   25   27 1
  44   26   28 ar
  45   26   48 1
  46   27   29 1
  47   28   49 1
  48   29   50 1
  49   29   51 1
  50   29   52 1
  51   30   31 1
  52   30   53 1
  53   30   54 1
  54   31   32 1
  55   31   36 1
  56   32   33 1
  57   32   55 1
  58   32   56 1
  59   33   34 1
  60   33   57 1
  61   33   58 1
  62   34   35 1
  63   35   36 1
  64   35   59 1
  65   35   60 1
  66   36   61 1
  67   36   62 1

#	End of record

