#	Name: ASD06590068
#	Creating user name:	WinNT
#	Creation time:	15. 06. 2019 21:06

#	Modifying user name:	WinNT
#	Modification time:	15. 06. 2019 21:06

#	Program:	/corina/corina34_cracker 3.40 0067  02.08.2006

@<TRIPOS>MOLECULE
ASD06590068
 375  378    0    0    0
SMALL
NO_CHARGES


@<TRIPOS>ATOM
   1 C1            -4.7709     0.2951     2.7609 C.2     
   2 O2            -5.0448    -0.8853     2.7101 O.2     
   3 N3            -2.4763    -0.3875     3.1780 N.3     
   4 C4            -3.3294     0.7347     2.7647 C.3     
   5 C5            -2.9307     1.1876     1.3587 C.3     
   6 C6            -1.5295     1.7416     1.3879 C.2     
   7 O7            -0.9110     1.7712     2.4301 O.2     
   8 N8            -0.9640     2.2040     0.2553 N.am    
   9 C9            -8.0517     1.9981     2.8585 C.2     
  10 O10           -7.5666     3.1087     2.9048 O.2     
  11 N11           -5.7557     1.2140     2.8084 N.am    
  12 C12           -7.1571     0.7869     2.7986 C.3     
  13 C13          -11.5912     2.6376     3.5116 C.2     
  14 O14          -11.7930     1.4911     3.8518 O.2     
  15 N15           -9.3910     1.8472     2.8607 N.am    
  16 C16          -10.2608     3.0246     2.9189 C.3     
  17 C17          -10.4719     3.5731     1.5063 C.3     
  18 C18           -9.1394     4.0812     0.9520 C.3     
  19 C19           -9.3473     4.6214    -0.4393 C.2     
  20 O20          -10.4483     4.6020    -0.9366 O.2     
  21 O21           -8.3094     5.1241    -1.1262 O.3     
  22 C22          -14.9103     4.1485     3.7634 C.2     
  23 O23          -14.5945     5.1450     3.1484 O.2     
  24 N24          -12.5568     3.5655     3.6635 N.am    
  25 C25          -13.8501     3.1892     4.2396 C.3     
  26 C26          -13.7631     3.2420     5.7662 C.3     
  27 C27          -12.7847     2.1737     6.2585 C.3     
  28 C28          -13.2711     4.6238     6.2015 C.3     
  29 C29          -18.4403     4.7059     4.5328 C.2     
  30 O30          -18.4475     3.8453     5.3874 O.2     
  31 N31          -16.2095     3.8991     4.0209 N.am    
  32 C32          -17.2314     4.8812     3.6502 C.3     
  33 C33          -17.6327     4.6727     2.1885 C.3     
  34 C34          -16.4361     4.9724     1.2834 C.3     
  35 C35          -16.8313     4.7671    -0.1562 C.2     
  36 O36          -17.9590     4.4156    -0.4313 O.2     
  37 N37          -15.9315     4.9740    -1.1381 N.am    
  38 C38          -21.9102     5.8557     4.5184 C.2     
  39 O39          -21.8093     6.3231     3.4039 O.2     
  40 N40          -19.5133     5.5054     4.3726 N.am    
  41 C41          -20.6885     5.3350     5.2306 C.3     
  42 C42          -20.4866     6.1132     6.5324 C.3     
  43 C43          -25.3426     6.7094     5.4420 C.2     
  44 O44          -25.1141     6.5848     6.6266 O.2     
  45 N45          -23.1151     5.8019     5.1201 N.am    
  46 C46          -24.3028     6.3081     4.4277 C.3     
  47 C47          -24.8700     5.2136     3.5215 C.3     
  48 C48          -23.8622     4.8942     2.4155 C.3     
  49 C49          -24.4208     3.8161     1.5229 C.2     
  50 O50          -25.5130     3.3511     1.7482 O.2     
  51 O51          -23.7051     3.3726     0.4775 O.3     
  52 C52          -28.8925     7.4479     5.5157 C.2     
  53 O53          -29.0648     6.9297     4.4328 O.2     
  54 N54          -26.5266     7.2066     5.0328 N.am    
  55 C55          -27.4936     7.6993     6.0168 C.3     
  56 C56          -27.2888     9.2011     6.2254 C.3     
  57 C57          -27.3287     9.9141     4.8722 C.3     
  58 C58          -28.7448     9.8390     4.2978 C.3     
  59 C59          -25.9320     9.4434     6.8897 C.3     
  60 C60          -32.2927     8.4155     6.4462 C.2     
  61 O61          -31.9009     9.3068     7.1694 O.2     
  62 N62          -29.9521     7.7989     6.2711 N.am    
  63 C63          -31.3077     7.4504     5.8385 C.3     
  64 C64          -31.6389     6.0282     6.2954 C.3     
  65 C65          -30.7186     5.0359     5.5818 C.3     
  66 C66          -31.0499     3.6138     6.0387 C.3     
  67 C67          -30.1295     2.6215     5.3252 C.3     
  68 N68          -30.4476     1.2560     5.7638 N.3     
  69 C69          -35.9204     8.5710     6.8688 C.2     
  70 O70          -36.0706     7.4323     6.4794 O.2     
  71 N71          -33.6089     8.2882     6.1859 N.am    
  72 C72          -34.5665     9.2265     6.7767 C.3     
  73 C73          -34.6635    10.4762     5.8994 C.3     
  74 C74          -33.3209    11.2099     5.9066 C.3     
  75 C75          -33.4179    12.4596     5.0293 C.3     
  76 C76          -32.0753    13.1932     5.0365 C.3     
  77 N77          -32.1685    14.3931     4.1942 N.3     
  78 C78          -39.3520     9.6727     7.4798 C.2     
  79 O79          -39.0465    10.8446     7.4156 O.2     
  80 N80          -36.9642     9.2503     7.3840 N.am    
  81 C81          -38.2804     8.6132     7.4736 C.3     
  82 C82          -38.3643     7.7954     8.7640 C.3     
  83 O83          -38.2917     8.6727     9.8896 O.3     
  84 C84          -42.9237     9.8124     8.2455 C.2     
  85 O85          -42.9309     8.6816     8.6840 O.2     
  86 N86          -40.6500     9.3179     7.5565 N.am    
  87 C87          -41.6918    10.3479     7.5625 C.3     
  88 C88          -42.0345    10.7350     6.1225 C.3     
  89 C89          -40.8365    11.3834     5.4780 C.2     
  90 C90          -40.5886    12.7002     5.3965 C.2     
  91 N91          -39.4059    12.9127     4.7420 N.pl3   
  92 C92          -38.8496    11.7072     4.3771 C.ar    
  93 C93          -37.6827    11.3546     3.7075 C.ar    
  94 C94          -37.3945    10.0251     3.4884 C.ar    
  95 C95          -38.2576     9.0317     3.9294 C.ar    
  96 C96          -39.4098     9.3557     4.5890 C.ar    
  97 C97          -39.7184    10.6961     4.8272 C.ar    
  98 C98          -46.4289    10.8097     8.5327 C.2     
  99 O99          -46.3055    11.6860     7.7034 O.2     
 100 N100         -44.0176    10.5899     8.3689 N.am    
 101 C101         -45.2153    10.0693     9.0328 C.3     
 102 C102         -45.0859    10.2646    10.5448 C.3     
 103 O103         -45.0646    11.6616    10.8445 O.3     
 104 C104         -49.9188    11.1608     9.5623 C.2     
 105 O105         -49.7274    10.5765    10.6077 O.2     
 106 N106         -47.6513    10.4981     9.0071 N.am    
 107 C107         -48.8310    11.2179     8.5209 C.3     
 108 C108         -49.3281    10.5679     7.2281 C.3     
 109 C109         -48.2720    10.7361     6.1339 C.3     
 110 C110         -48.7691    10.0861     4.8411 C.3     
 111 N111         -47.7578    10.2471     3.7934 N.pl3   
 112 C112         -47.9842     9.7399     2.5358 C.2     
 113 N113         -49.0985     9.1158     2.2756 N.2     
 114 N114         -47.0352     9.8910     1.5525 N.pl3   
 115 C115         -53.5038    11.8660     9.6784 C.2     
 116 O116         -53.5704    12.0134     8.4764 O.2     
 117 N117         -51.1043    11.7592     9.3320 N.am    
 118 C118         -52.1617    11.7037    10.3444 C.3     
 119 C119         -51.9562    12.8305    11.3588 C.3     
 120 C120         -50.6711    12.6005    12.1116 C.2     
 121 C121         -50.5399    11.9887    13.2992 C.2     
 122 N122         -49.2228    11.9652    13.6690 N.pl3   
 123 C123         -48.4546    12.5769    12.7038 C.ar    
 124 C124         -47.0912    12.8214    12.5778 C.ar    
 125 C125         -46.6133    13.4740    11.4623 C.ar    
 126 C126         -47.4790    13.8910    10.4609 C.ar    
 127 C127         -48.8223    13.6616    10.5645 C.ar    
 128 C128         -49.3274    12.9966    11.6831 C.ar    
 129 C129         -56.9257    12.5535    10.7651 C.2     
 130 O130         -56.5766    12.7894    11.9023 O.2     
 131 N131         -54.6300    11.8473    10.4185 N.am    
 132 C132         -55.9347    12.0050     9.7710 C.3     
 133 C133         -56.4202    10.6455     9.2640 C.3     
 134 C134         -55.3564    10.0321     8.3513 C.3     
 135 O135         -56.6521     9.7778    10.3754 O.3     
 136 C136         -60.5584    12.9201    10.9453 C.2     
 137 O137         -60.7308    12.2583     9.9437 O.2     
 138 N138         -58.2000    12.7819    10.3902 N.am    
 139 C139         -59.1634    13.3151    11.3565 C.3     
 140 C140         -59.0559    14.8408    11.3951 C.3     
 141 C141         -57.6803    15.2417    11.9317 C.3     
 142 C142         -57.5256    16.7619    11.8537 C.3     
 143 C143         -57.5492    14.7898    13.3875 C.3     
 144 C144         -63.9590    13.9061    11.8546 C.2     
 145 O145         -63.5692    14.8391    12.5243 O.2     
 146 N146         -61.6143    13.3022    11.6906 N.am    
 147 C147         -62.9704    12.9182    11.2909 C.3     
 148 C148         -63.2838    11.5202    11.8278 C.3     
 149 C149         -67.5622    14.1265    12.3383 C.2     
 150 O150         -67.7919    13.0104    11.9232 O.2     
 151 N151         -65.2763    13.7528    11.6144 N.am    
 152 C152         -66.2269    14.7709    12.0684 C.3     
 153 C153         -66.3860    15.8394    10.9850 C.3     
 154 C154         -67.2582    16.9786    11.5164 C.3     
 155 C155         -66.5135    17.7129    12.6332 C.3     
 156 C156         -67.5674    17.9564    10.3810 C.3     
 157 C157         -70.7324    14.2380    12.2629 C.2     
 158 O158         -70.4159    14.8183    11.2515 O.2     
 159 N159         -68.5012    14.7906    13.0410 N.am    
 160 C160         -69.7539    14.1228    13.4032 C.3     
 161 C161         -70.3432    14.7856    14.6499 C.3     
 162 C162         -69.4204    14.5640    15.8205 C.2     
 163 O163         -68.3964    13.9399    15.6728 O.2     
 164 O164         -69.7360    15.0599    17.0272 O.3     
 165 O165         -71.9556    13.6958    12.3709 O.3     
 166 C166           0.2892     2.6995     0.2814 C.2     
 167 O167           0.9076     2.7292     1.3236 O.2     
 168 C168          15.3080    10.4025    -7.8603 C.3     
 169 C169          14.6660     9.8775    -6.5745 C.3     
 170 C170          13.2528     9.3759    -6.8781 C.3     
 171 C171          12.6108     8.8509    -5.5923 C.3     
 172 C172          11.1976     8.3494    -5.8959 C.3     
 173 C173          10.5556     7.8244    -4.6102 C.3     
 174 C174           9.1424     7.3228    -4.9137 C.3     
 175 C175           8.5004     6.7978    -3.6280 C.3     
 176 C176           7.0871     6.2963    -3.9315 C.3     
 177 C177           6.4452     5.7713    -2.6458 C.3     
 178 C178           5.0319     5.2697    -2.9494 C.3     
 179 C179           4.3899     4.7447    -1.6636 C.3     
 180 C180           2.9767     4.2432    -1.9672 C.3     
 181 C181           2.3347     3.7182    -0.6814 C.3     
 182 C182           0.9215     3.2166    -0.9850 C.3     
 183 H183          -2.6764    -0.6632     4.1278 H       
 184 H184          -2.5748    -1.1683     2.5465 H       
 185 H185          -3.2039     1.5627     3.4624 H       
 186 H186          -2.9710     0.3372     0.6780 H       
 187 H187          -3.6196     1.9598     1.0166 H       
 188 H188          -1.4588     2.1803    -0.5786 H       
 189 H189          -5.5367     2.1580     2.8490 H       
 190 H190          -7.3489     0.1504     3.6624 H       
 191 H191          -7.3607     0.2296     1.8843 H       
 192 H192          -9.7790     0.9589     2.8237 H       
 193 H193          -9.7952     3.7899     3.5400 H       
 194 H194         -10.8549     2.7812     0.8626 H       
 195 H195         -11.1886     4.3937     1.5385 H       
 196 H196          -8.7564     4.8730     1.5958 H       
 197 H197          -8.4227     3.2606     0.9198 H       
 198 H198          -8.4919     5.4589    -2.0149 H       
 199 H199         -12.3954     4.4824     3.3914 H       
 200 H200         -14.1075     2.1778     3.9251 H       
 201 H201         -14.7488     3.0563     6.1929 H       
 202 H202         -11.7991     2.3595     5.8318 H       
 203 H203         -12.7227     2.2113     7.3461 H       
 204 H204         -13.1353     1.1893     5.9484 H       
 205 H205         -12.3260     4.8456     5.7059 H       
 206 H206         -14.0106     5.3759     5.9270 H       
 207 H207         -13.1260     4.6341     7.2818 H       
 208 H208         -16.4680     3.0693     4.4517 H       
 209 H209         -16.8316     5.8872     3.7773 H       
 210 H210         -17.9491     3.6400     2.0424 H       
 211 H211         -18.4546     5.3435     1.9382 H       
 212 H212         -16.1196     6.0052     1.4296 H       
 213 H213         -15.6142     4.3017     1.5338 H       
 214 H214         -15.0296     5.2550    -0.9181 H       
 215 H215         -16.1859     4.8418    -2.0648 H       
 216 H216         -19.5076     6.1937     3.6891 H       
 217 H217         -20.8229     4.2773     5.4568 H       
 218 H218         -21.3609     5.9865     7.1708 H       
 219 H219         -19.6029     5.7367     7.0475 H       
 220 H220         -20.3521     7.1710     6.3062 H       
 221 H221         -23.1958     5.4281     6.0115 H       
 222 H222         -24.0303     7.1742     3.8246 H       
 223 H223         -25.0596     4.3163     4.1105 H       
 224 H224         -25.8024     5.5588     3.0748 H       
 225 H225         -23.6725     5.7915     1.8265 H       
 226 H226         -22.9298     4.5490     2.8622 H       
 227 H227         -24.1051     2.6802    -0.0663 H       
 228 H228         -26.7383     7.2383     4.0867 H       
 229 H229         -27.3473     7.1778     6.9627 H       
 230 H230         -28.0811     9.5905     6.8647 H       
 231 H231         -27.0447    10.9583     5.0032 H       
 232 H232         -26.6324     9.4314     4.1865 H       
 233 H233         -28.9501     8.8200     3.9695 H       
 234 H234         -29.4639    10.1253     5.0652 H       
 235 H235         -28.8292    10.5180     3.4493 H       
 236 H236         -25.1453     8.9948     6.2832 H       
 237 H237         -25.7566    10.5156     6.9771 H       
 238 H238         -25.9276     8.9924     7.8820 H       
 239 H239         -29.8171     8.2824     7.1011 H       
 240 H240         -31.3678     7.5060     4.7516 H       
 241 H241         -31.4927     5.9494     7.3726 H       
 242 H242         -32.6768     5.8009     6.0519 H       
 243 H243         -30.8648     5.1148     4.5045 H       
 244 H244         -29.6807     5.2632     5.8252 H       
 245 H245         -30.9037     3.5349     7.1160 H       
 246 H246         -32.0877     3.3865     5.7953 H       
 247 H247         -30.2757     2.7003     4.2479 H       
 248 H248         -29.0917     2.8488     5.5686 H       
 249 H249         -29.8528     0.5815     5.3064 H       
 250 H250         -30.3821     1.1742     6.7674 H       
 251 H251         -33.9222     7.5754     5.6075 H       
 252 H252         -34.2306     9.5083     7.7746 H       
 253 H253         -34.9131    10.1853     4.8790 H       
 254 H254         -35.4395    11.1347     6.2896 H       
 255 H255         -33.0713    11.5007     6.9270 H       
 256 H256         -32.5449    10.5513     5.5164 H       
 257 H257         -33.6675    12.1687     4.0089 H       
 258 H258         -34.1939    13.1181     5.4195 H       
 259 H259         -31.8257    13.4841     6.0569 H       
 260 H260         -31.2993    12.5347     4.6463 H       
 261 H261         -32.9240    14.9896     4.4967 H       
 262 H262         -31.2935    14.8956     4.1825 H       
 263 H263         -36.8441    10.1610     7.6955 H       
 264 H264         -38.4247     7.9554     6.6165 H       
 265 H265         -39.3082     7.2507     8.7882 H       
 266 H266         -37.5357     7.0881     8.8005 H       
 267 H267         -38.3390     8.2216    10.7436 H       
 268 H268         -40.8944     8.3806     7.6078 H       
 269 H269         -41.3316    11.2258     8.0989 H       
 270 H270         -42.3097     9.8418     5.5618 H       
 271 H271         -42.8699    11.4352     6.1235 H       
 272 H272         -41.2281    13.4769     5.7890 H       
 273 H273         -39.0172    13.7830     4.5619 H       
 274 H274         -37.0049    12.1203     3.3601 H       
 275 H275         -36.4880     9.7533     2.9679 H       
 276 H276         -38.0169     7.9943     3.7496 H       
 277 H277         -40.0769     8.5773     4.9289 H       
 278 H278         -44.0120    11.4943     8.0181 H       
 279 H279         -45.3208     9.0073     8.8114 H       
 280 H280         -45.9346     9.7985    11.0453 H       
 281 H281         -44.1612     9.8042    10.8928 H       
 282 H282         -44.9842    11.8604    11.7874 H       
 283 H283         -47.7500     9.7972     9.6704 H       
 284 H284         -48.5679    12.2577     8.3270 H       
 285 H285         -49.5070     9.5066     7.4004 H       
 286 H286         -50.2558    11.0464     6.9142 H       
 287 H287         -48.0932    11.7974     5.9616 H       
 288 H288         -47.3443    10.2575     6.4478 H       
 289 H289         -48.9479     9.0248     5.0134 H       
 290 H290         -49.6968    10.5646     4.5272 H       
 291 H291         -46.9286    10.7115     3.9870 H       
 292 H292         -49.2582     8.7580     1.3882 H       
 293 H293         -46.2059    10.3555     1.7462 H       
 294 H294         -47.1949     9.5332     0.6652 H       
 295 H295         -51.2573    12.2265     8.4959 H       
 296 H296         -52.1242    10.7423    10.8567 H       
 297 H297         -51.9050    13.7854    10.8357 H       
 298 H298         -52.7905    12.8447    12.0601 H       
 299 H299         -51.3536    11.5763    13.8773 H       
 300 H300         -48.8811    11.5756    14.4890 H       
 301 H301         -46.4095    12.5011    13.3518 H       
 302 H302         -45.5543    13.6632    11.3664 H       
 303 H303         -47.0881    14.4012     9.5930 H       
 304 H304         -49.4900    13.9893     9.7815 H       
 305 H305         -54.5768    11.7293    11.3798 H       
 306 H306         -55.8428    12.6942     8.9316 H       
 307 H307         -57.3469    10.7760     8.7052 H       
 308 H308         -55.7022     9.0636     7.9901 H       
 309 H309         -55.1794    10.6940     7.5036 H       
 310 H310         -54.4296     9.9017     8.9101 H       
 311 H311         -56.9625     8.8960    10.1279 H       
 312 H312         -58.4793    12.5932     9.4807 H       
 313 H313         -58.9479    12.9105    12.3455 H       
 314 H314         -59.1837    15.2396    10.3887 H       
 315 H315         -59.8315    15.2434    12.0466 H       
 316 H316         -56.9038    14.7663    11.3324 H       
 317 H317         -58.3021    17.2373    12.4530 H       
 318 H318         -56.5456    17.0475    12.2360 H       
 319 H319         -57.6190    17.0838    10.8165 H       
 320 H320         -58.3257    15.2652    13.9869 H       
 321 H321         -57.6594    13.7068    13.4431 H       
 322 H322         -56.5692    15.0754    13.7698 H       
 323 H323         -61.4764    13.8314    12.4917 H       
 324 H324         -63.0410    12.9139    10.2032 H       
 325 H325         -63.2131    11.5245    12.9155 H       
 326 H326         -64.2928    11.2345    11.5304 H       
 327 H327         -62.5687    10.8057    11.4201 H       
 328 H328         -65.5950    12.9685    11.1410 H       
 329 H329         -65.8551    15.2331    12.9829 H       
 330 H330         -65.4053    16.2294    10.7126 H       
 331 H331         -66.8586    15.3991    10.1070 H       
 332 H332         -68.1899    16.5705    11.9083 H       
 333 H333         -67.1625    18.4768    13.0615 H       
 334 H334         -66.2286    17.0017    13.4086 H       
 335 H335         -65.6189    18.1832    12.2251 H       
 336 H336         -68.0980    17.4334     9.5854 H       
 337 H337         -68.1888    18.7680    10.7596 H       
 338 H338         -66.6358    18.3646     9.9892 H       
 339 H339         -68.3476    15.7107    13.3070 H       
 340 H340         -69.5582    13.0705    13.6093 H       
 341 H341         -70.4561    15.8554    14.4737 H       
 342 H342         -71.3177    14.3484    14.8676 H       
 343 H343         -69.1130    14.8920    17.7475 H       
 344 H344         -72.5483    13.7954    11.6134 H       
 345 H345          16.3148    10.7598    -7.6440 H       
 346 H346          15.3576     9.5995    -8.5957 H       
 347 H347          14.7090    11.2221    -8.2570 H       
 348 H348          15.2650     9.0578    -6.1777 H       
 349 H349          14.6164    10.6804    -5.8391 H       
 350 H350          12.6538    10.1956    -7.2749 H       
 351 H351          13.3024     8.5730    -7.6135 H       
 352 H352          13.2098     8.0313    -5.1956 H       
 353 H353          12.5612     9.6539    -4.8569 H       
 354 H354          10.5986     9.1690    -6.2927 H       
 355 H355          11.2472     7.5464    -6.6314 H       
 356 H356          11.1546     7.0047    -4.2134 H       
 357 H357          10.5060     8.6273    -3.8747 H       
 358 H358           8.5433     8.1425    -5.3105 H       
 359 H359           9.1920     6.5199    -5.6492 H       
 360 H360           9.0994     5.9782    -3.2312 H       
 361 H361           8.4508     7.6008    -2.8925 H       
 362 H362           6.4881     7.1159    -4.3283 H       
 363 H363           7.1367     5.4933    -4.6670 H       
 364 H364           7.0442     4.9516    -2.2490 H       
 365 H365           6.3956     6.5742    -1.9103 H       
 366 H366           4.4329     6.0894    -3.3461 H       
 367 H367           5.0815     4.4668    -3.6848 H       
 368 H368           4.9890     3.9250    -1.2669 H       
 369 H369           4.3404     5.5477    -0.9282 H       
 370 H370           2.3777     5.0628    -2.3640 H       
 371 H371           3.0263     3.4402    -2.7027 H       
 372 H372           2.9337     2.8985    -0.2847 H       
 373 H373           2.2851     4.5211     0.0540 H       
 374 H374           0.9711     2.4136    -1.7205 H       
 375 H375           0.3225     4.0363    -1.3818 H       
@<TRIPOS>BOND
   1    1    2 2
   2    1    4 1
   3    1   11 am
   4    3    4 1
   5    3  183 1
   6    3  184 1
   7    4    5 1
   8    4  185 1
   9    5    6 1
  10    5  186 1
  11    5  187 1
  12    6    7 2
  13    6    8 am
  14    8  166 am
  15    8  188 1
  16    9   10 2
  17    9   12 1
  18    9   15 am
  19   11   12 1
  20   11  189 1
  21   12  190 1
  22   12  191 1
  23   13   14 2
  24   13   16 1
  25   13   24 am
  26   15   16 1
  27   15  192 1
  28   16   17 1
  29   16  193 1
  30   17   18 1
  31   17  194 1
  32   17  195 1
  33   18   19 1
  34   18  196 1
  35   18  197 1
  36   19   20 2
  37   19   21 1
  38   21  198 1
  39   22   23 2
  40   22   25 1
  41   22   31 am
  42   24   25 1
  43   24  199 1
  44   25   26 1
  45   25  200 1
  46   26   27 1
  47   26   28 1
  48   26  201 1
  49   27  202 1
  50   27  203 1
  51   27  204 1
  52   28  205 1
  53   28  206 1
  54   28  207 1
  55   29   30 2
  56   29   32 1
  57   29   40 am
  58   31   32 1
  59   31  208 1
  60   32   33 1
  61   32  209 1
  62   33   34 1
  63   33  210 1
  64   33  211 1
  65   34   35 1
  66   34  212 1
  67   34  213 1
  68   35   36 2
  69   35   37 am
  70   37  214 1
  71   37  215 1
  72   38   39 2
  73   38   41 1
  74   38   45 am
  75   40   41 1
  76   40  216 1
  77   41   42 1
  78   41  217 1
  79   42  218 1
  80   42  219 1
  81   42  220 1
  82   43   44 2
  83   43   46 1
  84   43   54 am
  85   45   46 1
  86   45  221 1
  87   46   47 1
  88   46  222 1
  89   47   48 1
  90   47  223 1
  91   47  224 1
  92   48   49 1
  93   48  225 1
  94   48  226 1
  95   49   50 2
  96   49   51 1
  97   51  227 1
  98   52   53 2
  99   52   55 1
 100   52   62 am
 101   54   55 1
 102   54  228 1
 103   55   56 1
 104   55  229 1
 105   56   57 1
 106   56   59 1
 107   56  230 1
 108   57   58 1
 109   57  231 1
 110   57  232 1
 111   58  233 1
 112   58  234 1
 113   58  235 1
 114   59  236 1
 115   59  237 1
 116   59  238 1
 117   60   61 2
 118   60   63 1
 119   60   71 am
 120   62   63 1
 121   62  239 1
 122   63   64 1
 123   63  240 1
 124   64   65 1
 125   64  241 1
 126   64  242 1
 127   65   66 1
 128   65  243 1
 129   65  244 1
 130   66   67 1
 131   66  245 1
 132   66  246 1
 133   67   68 1
 134   67  247 1
 135   67  248 1
 136   68  249 1
 137   68  250 1
 138   69   70 2
 139   69   72 1
 140   69   80 am
 141   71   72 1
 142   71  251 1
 143   72   73 1
 144   72  252 1
 145   73   74 1
 146   73  253 1
 147   73  254 1
 148   74   75 1
 149   74  255 1
 150   74  256 1
 151   75   76 1
 152   75  257 1
 153   75  258 1
 154   76   77 1
 155   76  259 1
 156   76  260 1
 157   77  261 1
 158   77  262 1
 159   78   79 2
 160   78   81 1
 161   78   86 am
 162   80   81 1
 163   80  263 1
 164   81   82 1
 165   81  264 1
 166   82   83 1
 167   82  265 1
 168   82  266 1
 169   83  267 1
 170   84   85 2
 171   84   87 1
 172   84  100 am
 173   86   87 1
 174   86  268 1
 175   87   88 1
 176   87  269 1
 177   88   89 1
 178   88  270 1
 179   88  271 1
 180   89   90 2
 181   89   97 1
 182   90   91 1
 183   90  272 1
 184   91   92 1
 185   91  273 1
 186   92   93 ar
 187   92   97 ar
 188   93   94 ar
 189   93  274 1
 190   94   95 ar
 191   94  275 1
 192   95   96 ar
 193   95  276 1
 194   96   97 ar
 195   96  277 1
 196   98   99 2
 197   98  101 1
 198   98  106 am
 199  100  101 1
 200  100  278 1
 201  101  102 1
 202  101  279 1
 203  102  103 1
 204  102  280 1
 205  102  281 1
 206  103  282 1
 207  104  105 2
 208  104  107 1
 209  104  117 am
 210  106  107 1
 211  106  283 1
 212  107  108 1
 213  107  284 1
 214  108  109 1
 215  108  285 1
 216  108  286 1
 217  109  110 1
 218  109  287 1
 219  109  288 1
 220  110  111 1
 221  110  289 1
 222  110  290 1
 223  111  112 1
 224  111  291 1
 225  112  113 2
 226  112  114 1
 227  113  292 1
 228  114  293 1
 229  114  294 1
 230  115  116 2
 231  115  118 1
 232  115  131 am
 233  117  118 1
 234  117  295 1
 235  118  119 1
 236  118  296 1
 237  119  120 1
 238  119  297 1
 239  119  298 1
 240  120  121 2
 241  120  128 1
 242  121  122 1
 243  121  299 1
 244  122  123 1
 245  122  300 1
 246  123  124 ar
 247  123  128 ar
 248  124  125 ar
 249  124  301 1
 250  125  126 ar
 251  125  302 1
 252  126  127 ar
 253  126  303 1
 254  127  128 ar
 255  127  304 1
 256  129  130 2
 257  129  132 1
 258  129  138 am
 259  131  132 1
 260  131  305 1
 261  132  133 1
 262  132  306 1
 263  133  134 1
 264  133  135 1
 265  133  307 1
 266  134  308 1
 267  134  309 1
 268  134  310 1
 269  135  311 1
 270  136  137 2
 271  136  139 1
 272  136  146 am
 273  138  139 1
 274  138  312 1
 275  139  140 1
 276  139  313 1
 277  140  141 1
 278  140  314 1
 279  140  315 1
 280  141  142 1
 281  141  143 1
 282  141  316 1
 283  142  317 1
 284  142  318 1
 285  142  319 1
 286  143  320 1
 287  143  321 1
 288  143  322 1
 289  144  145 2
 290  144  147 1
 291  144  151 am
 292  146  147 1
 293  146  323 1
 294  147  148 1
 295  147  324 1
 296  148  325 1
 297  148  326 1
 298  148  327 1
 299  149  150 2
 300  149  152 1
 301  149  159 am
 302  151  152 1
 303  151  328 1
 304  152  153 1
 305  152  329 1
 306  153  154 1
 307  153  330 1
 308  153  331 1
 309  154  155 1
 310  154  156 1
 311  154  332 1
 312  155  333 1
 313  155  334 1
 314  155  335 1
 315  156  336 1
 316  156  337 1
 317  156  338 1
 318  157  158 2
 319  157  160 1
 320  157  165 1
 321  159  160 1
 322  159  339 1
 323  160  161 1
 324  160  340 1
 325  161  162 1
 326  161  341 1
 327  161  342 1
 328  162  163 2
 329  162  164 1
 330  164  343 1
 331  165  344 1
 332  166  167 2
 333  166  182 1
 334  168  169 1
 335  168  345 1
 336  168  346 1
 337  168  347 1
 338  169  170 1
 339  169  348 1
 340  169  349 1
 341  170  171 1
 342  170  350 1
 343  170  351 1
 344  171  172 1
 345  171  352 1
 346  171  353 1
 347  172  173 1
 348  172  354 1
 349  172  355 1
 350  173  174 1
 351  173  356 1
 352  173  357 1
 353  174  175 1
 354  174  358 1
 355  174  359 1
 356  175  176 1
 357  175  360 1
 358  175  361 1
 359  176  177 1
 360  176  362 1
 361  176  363 1
 362  177  178 1
 363  177  364 1
 364  177  365 1
 365  178  179 1
 366  178  366 1
 367  178  367 1
 368  179  180 1
 369  179  368 1
 370  179  369 1
 371  180  181 1
 372  180  370 1
 373  180  371 1
 374  181  182 1
 375  181  372 1
 376  181  373 1
 377  182  374 1
 378  182  375 1

#	End of record

