#	Name: ASD01884305
#	Creating user name:	WinNT
#	Creation time:	15. 06. 2019 19:47

#	Modifying user name:	WinNT
#	Modification time:	15. 06. 2019 19:47

#	Program:	/corina/corina34_cracker 3.40 0067  02.08.2006

@<TRIPOS>MOLECULE
ASD01884305
  30   31    0    0    0
SMALL
NO_CHARGES


@<TRIPOS>ATOM
   1 C1            -0.0413     1.3276    -0.3149 C.ar    
   2 N2            -0.0316     0.0134    -0.4216 N.ar    
   3 C3            -1.1346    -0.7003    -0.3126 C.ar    
   4 C4            -2.3559    -0.0848    -0.0794 C.ar    
   5 C5            -2.4025     1.3011     0.0386 C.ar    
   6 C6            -1.2191     2.0118    -0.0774 C.ar    
   7 C7            -5.1714     0.1425     1.4086 C.ar    
   8 C8            -4.6734    -0.1649     0.1514 C.ar    
   9 C9            -5.3813     0.2005    -0.9848 C.ar    
  10 C10           -6.5839     0.8711    -0.8638 C.ar    
  11 C11           -7.0834     1.1789     0.3973 C.ar    
  12 C12           -6.3738     0.8125     1.5319 C.ar    
  13 C13           -1.0683    -2.2002    -0.4431 C.3     
  14 O14           -3.4903    -0.8245     0.0319 O.3     
  15 C15            1.2496     2.0938    -0.4476 C.3     
  16 F16           -7.2735     1.2276    -1.9695 F       
  17 N17           -8.3019     1.8588     0.5219 N.pl3   
  18 H18           -3.3378     1.8097     0.2198 H       
  19 H19           -1.2177     3.0883     0.0087 H       
  20 H20           -4.6215    -0.1461     2.2922 H       
  21 H21           -4.9925    -0.0386    -1.9636 H       
  22 H22           -6.7609     1.0511     2.5114 H       
  23 H23           -0.8995    -2.6432     0.5384 H       
  24 H24           -2.0079    -2.5712    -0.8525 H       
  25 H25           -0.2494    -2.4710    -1.1097 H       
  26 H26            1.4086     2.3596    -1.4926 H       
  27 H27            1.1971     3.0011     0.1542 H       
  28 H28            2.0768     1.4748    -0.1002 H       
  29 H29           -8.7975     2.1152    -0.2716 H       
  30 H30           -8.6499     2.0733     1.4015 H       
@<TRIPOS>BOND
   1    1    2 ar
   2    1   15 1
   3    1    6 ar
   4    2    3 ar
   5    3    4 ar
   6    3   13 1
   7    4    5 ar
   8    4   14 1
   9    5    6 ar
  10    5   18 1
  11    6   19 1
  12    7    8 ar
  13    7   12 ar
  14    7   20 1
  15    8    9 ar
  16    8   14 1
  17    9   10 ar
  18    9   21 1
  19   10   11 ar
  20   10   16 1
  21   11   12 ar
  22   11   17 1
  23   12   22 1
  24   13   23 1
  25   13   24 1
  26   13   25 1
  27   15   26 1
  28   15   27 1
  29   15   28 1
  30   17   29 1
  31   17   30 1

#	End of record

