#	Name: ASD01910060
#	Creating user name:	WinNT
#	Creation time:	15. 06. 2019 19:55

#	Modifying user name:	WinNT
#	Modification time:	15. 06. 2019 19:55

#	Program:	/corina/corina34_cracker 3.40 0067  02.08.2006

@<TRIPOS>MOLECULE
ASD01910060
  42   45    0    0    0
SMALL
NO_CHARGES


@<TRIPOS>ATOM
   1 C1            -0.0158     1.3125     0.0093 C.2     
   2 N2             0.0021    -0.0041     0.0020 N.2     
   3 N3            -1.3213    -0.4625     0.0130 N.pl3   
   4 C4            -2.1428     0.6239     0.0272 C.2     
   5 C5            -1.3586     1.7340     0.0305 C.2     
   6 C6             1.1743     2.1988     0.0027 C.ar    
   7 C7             2.4550     1.6498    -0.0130 C.ar    
   8 C8             3.5583     2.4789    -0.0196 C.ar    
   9 C9             3.3947     3.8524    -0.0102 C.ar    
  10 C10            2.1257     4.4027     0.0054 C.ar    
  11 C11            1.0153     3.5831     0.0063 C.ar    
  12 C12           -1.7286    -1.8028     0.0100 C.ar    
  13 N13           -3.5360     0.6013     0.0406 N.am    
  14 C14           -4.2286     1.7573     0.0540 C.2     
  15 C15           -5.7093     1.7333     0.0682 C.ar    
  16 C16           -6.4473     2.9210     0.0821 C.ar    
  17 C17           -7.8269     2.8522     0.0952 C.ar    
  18 N18           -8.4466     1.6888     0.0946 N.ar    
  19 C19           -7.7895     0.5461     0.0816 C.ar    
  20 C20           -6.4085     0.5222     0.0622 C.ar    
  21 O21           -3.6381     2.8196     0.0543 O.2     
  22 C22           -0.9957    -2.7511    -0.6915 C.ar    
  23 C23           -1.3996    -4.0718    -0.6921 C.ar    
  24 C24           -2.5324    -4.4503     0.0048 C.ar    
  25 C25           -3.2646    -3.5083     0.7039 C.ar    
  26 C26           -2.8627    -2.1870     0.7132 C.ar    
  27 H27           -1.7042     2.7572     0.0414 H       
  28 H28            2.5839     0.5776    -0.0197 H       
  29 H29            4.5514     2.0545    -0.0318 H       
  30 H30            4.2609     4.4974    -0.0146 H       
  31 H31            2.0037     5.4758     0.0127 H       
  32 H32            0.0250     4.0138     0.0185 H       
  33 H33           -4.0073    -0.2465     0.0403 H       
  34 H34           -5.9462     3.8777     0.0831 H       
  35 H35           -8.4056     3.7640     0.1064 H       
  36 H36           -8.3384    -0.3840     0.0817 H       
  37 H37           -5.8766    -0.4177     0.0517 H       
  38 H38           -0.1111    -2.4561    -1.2362 H       
  39 H39           -0.8302    -4.8098    -1.2378 H       
  40 H40           -2.8462    -5.4838     0.0027 H       
  41 H41           -4.1493    -3.8069     1.2467 H       
  42 H42           -3.4348    -1.4518     1.2597 H       
@<TRIPOS>BOND
   1    1    2 2
   2    1    6 1
   3    1    5 1
   4    2    3 1
   5    3    4 1
   6    3   12 1
   7    4    5 2
   8    4   13 1
   9    5   27 1
  10    6    7 ar
  11    6   11 ar
  12    7    8 ar
  13    7   28 1
  14    8    9 ar
  15    8   29 1
  16    9   10 ar
  17    9   30 1
  18   10   11 ar
  19   10   31 1
  20   11   32 1
  21   12   22 ar
  22   12   26 ar
  23   13   14 am
  24   13   33 1
  25   14   15 1
  26   14   21 2
  27   15   16 ar
  28   15   20 ar
  29   16   17 ar
  30   16   34 1
  31   17   18 ar
  32   17   35 1
  33   18   19 ar
  34   19   20 ar
  35   19   36 1
  36   20   37 1
  37   22   23 ar
  38   22   38 1
  39   23   24 ar
  40   23   39 1
  41   24   25 ar
  42   24   40 1
  43   25   26 ar
  44   25   41 1
  45   26   42 1

#	End of record

