#	Name: ASD01150357
#	Creating user name:	WinNT
#	Creation time:	15. 06. 2019 19:04

#	Modifying user name:	WinNT
#	Modification time:	15. 06. 2019 19:04

#	Program:	/corina/corina34_cracker 3.40 0067  02.08.2006

@<TRIPOS>MOLECULE
ASD01150357
  45   47    0    0    0
SMALL
NO_CHARGES


@<TRIPOS>ATOM
   1 C1             2.0698     1.2053     0.9468 C.ar    
   2 C2             2.0528    -0.1510     0.6862 C.ar    
   3 C3             1.2124    -0.6606    -0.2852 C.ar    
   4 C4             0.3816     0.1903    -1.0031 C.ar    
   5 C5             0.3958     1.5533    -0.7436 C.ar    
   6 C6             1.2408     2.0620     0.2325 C.ar    
   7 N7             1.2578     3.4358     0.4975 N.am    
   8 C8             0.0974     4.0899     0.6803 C.2     
   9 N9             0.0768     5.4111     0.9370 N.am    
  10 C10            1.2328     6.1025     1.0144 C.2     
  11 C11            2.5056     5.3929     0.8154 C.2     
  12 N12            2.4831     4.1085     0.5743 N.2     
  13 O13            3.6863     6.0609     0.8866 O.3     
  14 O14            1.2224     7.2973     1.2453 O.2     
  15 C15           -1.2019     6.0989     1.1321 C.3     
  16 O16           -0.9512     3.4777     0.6122 O.2     
  17 N17           -0.4683    -0.3265    -1.9872 N.am    
  18 C18           -1.0412    -1.5345    -1.8162 C.2     
  19 C19           -2.0383    -2.0450    -2.8242 C.3     
  20 O20           -0.7541    -2.2107    -0.8511 O.2     
  21 C21           -1.5729     6.0651     2.5923 C.ar    
  22 C22           -1.1613     7.0821     3.4335 C.ar    
  23 C23           -1.5013     7.0516     4.7728 C.ar    
  24 C24           -2.2535     6.0031     5.2716 C.ar    
  25 C25           -2.6651     4.9856     4.4293 C.ar    
  26 C26           -2.3293     5.0201     3.0890 C.ar    
  27 Cl27          -2.6804     5.9638     6.9539 Cl      
  28 C28            4.8769     5.2977     0.6813 C.3     
  29 H29            2.7248     1.6000     1.7094 H       
  30 H30            2.6980    -0.8147     1.2427 H       
  31 H31            1.2018    -1.7216    -0.4868 H       
  32 H32           -0.2490     2.2170    -1.3007 H       
  33 H33           -1.1111     7.1345     0.8042 H       
  34 H34           -1.9757     5.5996     0.5490 H       
  35 H35           -0.6453     0.1846    -2.7924 H       
  36 H36           -1.5164    -2.6050    -3.6002 H       
  37 H37           -2.7567    -2.6966    -2.3268 H       
  38 H38           -2.5632    -1.2026    -3.2749 H       
  39 H39           -0.5738     7.9004     3.0440 H       
  40 H40           -1.1794     7.8460     5.4299 H       
  41 H41           -3.2523     4.1668     4.8181 H       
  42 H42           -2.6505     4.2259     2.4314 H       
  43 H43            4.9391     4.5119     1.4342 H       
  44 H44            4.8539     4.8485    -0.3116 H       
  45 H45            5.7458     5.9504     0.7648 H       
@<TRIPOS>BOND
   1    1    2 ar
   2    1    6 ar
   3    1   29 1
   4    2    3 ar
   5    2   30 1
   6    3    4 ar
   7    3   31 1
   8    4    5 ar
   9    4   17 1
  10    5    6 ar
  11    5   32 1
  12    6    7 1
  13    7    8 am
  14    7   12 1
  15    8    9 am
  16    8   16 2
  17    9   10 am
  18    9   15 1
  19   10   11 1
  20   10   14 2
  21   11   12 2
  22   11   13 1
  23   13   28 1
  24   15   21 1
  25   15   33 1
  26   15   34 1
  27   17   18 am
  28   17   35 1
  29   18   19 1
  30   18   20 2
  31   19   36 1
  32   19   37 1
  33   19   38 1
  34   21   22 ar
  35   21   26 ar
  36   22   23 ar
  37   22   39 1
  38   23   24 ar
  39   23   40 1
  40   24   25 ar
  41   24   27 1
  42   25   26 ar
  43   25   41 1
  44   26   42 1
  45   28   43 1
  46   28   44 1
  47   28   45 1

#	End of record

