#	Name: ASD00170165
#	Creating user name:	WinNT
#	Creation time:	15. 06. 2019 18:31

#	Modifying user name:	WinNT
#	Modification time:	15. 06. 2019 18:31

#	Program:	/corina/corina34_cracker 3.40 0067  02.08.2006

@<TRIPOS>MOLECULE
ASD00170165
  30   32    0    0    0
SMALL
NO_CHARGES


@<TRIPOS>ATOM
   1 C1            -0.0267     1.3320    -0.1410 C.2     
   2 C2            -0.0037     0.0042    -0.1779 C.2     
   3 C3            -1.3277    -0.5835     0.0170 C.2     
   4 C4            -2.3112     0.3520     0.1959 C.2     
   5 S5            -1.6639     1.9238     0.1398 S.3     
   6 N6            -3.6444     0.0595     0.3995 N.pl3   
   7 C7            -1.5769    -2.0246     0.0198 C.2     
   8 C8            -1.8232    -2.7351    -1.2541 C.ar    
   9 C9             1.3744     1.8950    -0.3491 C.3     
  10 C10            2.3221     0.7096    -0.0766 C.3     
  11 C11            1.4194    -0.4932    -0.4163 C.3     
  12 O12           -1.5815    -2.6396     1.0707 O.2     
  13 C13           -1.9546    -4.1246    -1.2676 C.ar    
  14 C14           -2.1846    -4.7810    -2.4590 C.ar    
  15 C15           -2.2847    -4.0651    -3.6388 C.ar    
  16 C16           -2.1550    -2.6876    -3.6323 C.ar    
  17 C17           -1.9309    -2.0184    -2.4469 C.ar    
  18 H18           -3.9531    -0.8585     0.3461 H       
  19 H19           -4.2727     0.7719     0.5961 H       
  20 H20            1.4930     2.2477    -1.3736 H       
  21 H21            1.5665     2.7039     0.3559 H       
  22 H22            3.1904     0.7445    -0.7345 H       
  23 H23            2.6273     0.6859     0.9695 H       
  24 H24            1.6429    -1.3328     0.2420 H       
  25 H25            1.5501    -0.7828    -1.4590 H       
  26 H26           -1.8759    -4.6846    -0.3475 H       
  27 H27           -2.2865    -5.8562    -2.4708 H       
  28 H28           -2.4646    -4.5838    -4.5688 H       
  29 H29           -2.2338    -2.1346    -4.5567 H       
  30 H30           -1.8299    -0.9431    -2.4432 H       
@<TRIPOS>BOND
   1    1    2 2
   2    1    9 1
   3    1    5 1
   4    2    3 1
   5    2   11 1
   6    3    4 2
   7    3    7 1
   8    4    5 1
   9    4    6 1
  10    6   18 1
  11    6   19 1
  12    7    8 1
  13    7   12 2
  14    8   13 ar
  15    8   17 ar
  16    9   10 1
  17    9   20 1
  18    9   21 1
  19   10   11 1
  20   10   22 1
  21   10   23 1
  22   11   24 1
  23   11   25 1
  24   13   14 ar
  25   13   26 1
  26   14   15 ar
  27   14   27 1
  28   15   16 ar
  29   15   28 1
  30   16   17 ar
  31   16   29 1
  32   17   30 1

#	End of record

