#	Name: ASD01881338
#	Creating user name:	WinNT
#	Creation time:	15. 06. 2019 19:42

#	Modifying user name:	WinNT
#	Modification time:	15. 06. 2019 19:42

#	Program:	/corina/corina34_cracker 3.40 0067  02.08.2006

@<TRIPOS>MOLECULE
ASD01881338
  61   63    0    0    0
SMALL
NO_CHARGES


@<TRIPOS>ATOM
   1 C1            -0.0179     1.4705     0.0101 C.2     
   2 C2             0.0021    -0.0041     0.0020 C.ar    
   3 C3             1.2214    -0.6885    -0.0133 C.ar    
   4 C4             1.2351    -2.0668    -0.0209 C.ar    
   5 C5             0.0370    -2.7760    -0.0138 C.ar    
   6 C6            -1.1754    -2.0983     0.0010 C.ar    
   7 C7            -1.1973    -0.7210     0.0154 C.ar    
   8 O8             1.0260     2.0923     0.0035 O.2     
   9 O9            -1.1939     2.1283     0.0193 O.3     
  10 F10            2.4120    -2.7300    -0.0357 F       
  11 O11            0.0538    -4.1334    -0.0217 O.3     
  12 C12           -1.2113    -4.7979    -0.0137 C.3     
  13 C13           -0.9921    -6.3120    -0.0244 C.3     
  14 C14           -2.3466    -7.0235    -0.0159 C.3     
  15 C15           -2.1274    -8.5377    -0.0266 C.3     
  16 O16           -3.3925    -9.2022    -0.0186 O.3     
  17 C17           -3.3757   -10.5587    -0.0265 C.ar    
  18 C18           -4.5709   -11.2640    -0.0194 C.ar    
  19 C19           -4.5562   -12.6477    -0.0280 C.ar    
  20 C20           -3.3257   -13.3295    -0.0438 C.ar    
  21 C21           -2.1289   -12.6006    -0.0508 C.ar    
  22 C22           -2.1595   -11.2363    -0.0476 C.ar    
  23 C23           -5.8834   -10.5237    -0.0019 C.3     
  24 O24           -5.7209   -13.3423    -0.0206 O.3     
  25 C25           -3.2957   -14.7941    -0.0525 C.2     
  26 O26           -4.3338   -15.4222    -0.0460 O.2     
  27 C27           -1.9755   -15.5206    -0.0695 C.3     
  28 C28           -2.2242   -17.0302    -0.0758 C.3     
  29 C29           -0.8901   -17.7836    -0.2190 C.3     
  30 C30           -0.7384   -18.6553     1.0446 C.3     
  31 C31           -2.1901   -18.8503     1.5482 C.3     
  32 C32           -2.8365   -17.4705     1.2700 C.3     
  33 H33            2.1506    -0.1382    -0.0195 H       
  34 H34           -2.1025    -2.6522     0.0061 H       
  35 H35           -2.1408    -0.1957     0.0320 H       
  36 H36           -1.1564     3.0945     0.0244 H       
  37 H37           -1.7635    -4.5170     0.8831 H       
  38 H38           -1.7801    -4.5068    -0.8968 H       
  39 H39           -0.4398    -6.5929    -0.9212 H       
  40 H40           -0.4232    -6.6031     0.8586 H       
  41 H41           -2.8988    -6.7427     0.8809 H       
  42 H42           -2.9154    -6.7325    -0.8989 H       
  43 H43           -1.5751    -8.8185    -0.9234 H       
  44 H44           -1.5585    -8.8287     0.8565 H       
  45 H45           -1.1815   -13.1190    -0.0630 H       
  46 H46           -1.2346   -10.6787    -0.0575 H       
  47 H47           -6.2099   -10.3387    -1.0253 H       
  48 H48           -6.6321   -11.1237     0.5154 H       
  49 H49           -5.7577    -9.5734     0.5168 H       
  50 H50           -6.0674   -13.5384    -0.9018 H       
  51 H51           -1.4181   -15.2405    -0.9634 H       
  52 H52           -1.4008   -15.2507     0.8165 H       
  53 H53           -2.8923   -17.2949    -0.8953 H       
  54 H54           -0.9112   -18.4145    -1.1076 H       
  55 H55           -0.0655   -17.0737    -0.2841 H       
  56 H56           -0.2894   -19.6163     0.7934 H       
  57 H57           -0.1404   -18.1384     1.7951 H       
  58 H58           -2.6934   -19.6339     0.9819 H       
  59 H59           -2.2021   -19.0745     2.6148 H       
  60 H60           -2.5774   -16.7622     2.0569 H       
  61 H61           -3.9188   -17.5668     1.1833 H       
@<TRIPOS>BOND
   1    1    2 1
   2    1    8 2
   3    1    9 1
   4    2    3 ar
   5    2    7 ar
   6    3    4 ar
   7    3   33 1
   8    4    5 ar
   9    4   10 1
  10    5    6 ar
  11    5   11 1
  12    6    7 ar
  13    6   34 1
  14    7   35 1
  15    9   36 1
  16   11   12 1
  17   12   13 1
  18   12   37 1
  19   12   38 1
  20   13   14 1
  21   13   39 1
  22   13   40 1
  23   14   15 1
  24   14   41 1
  25   14   42 1
  26   15   16 1
  27   15   43 1
  28   15   44 1
  29   16   17 1
  30   17   18 ar
  31   17   22 ar
  32   18   19 ar
  33   18   23 1
  34   19   20 ar
  35   19   24 1
  36   20   21 ar
  37   20   25 1
  38   21   22 ar
  39   21   45 1
  40   22   46 1
  41   23   47 1
  42   23   48 1
  43   23   49 1
  44   24   50 1
  45   25   26 2
  46   25   27 1
  47   27   28 1
  48   27   51 1
  49   27   52 1
  50   28   29 1
  51   28   32 1
  52   28   53 1
  53   29   30 1
  54   29   54 1
  55   29   55 1
  56   30   31 1
  57   30   56 1
  58   30   57 1
  59   31   32 1
  60   31   58 1
  61   31   59 1
  62   32   60 1
  63   32   61 1

#	End of record

