#	Name: ASD01910484
#	Creating user name:	WinNT
#	Creation time:	15. 06. 2019 19:55

#	Modifying user name:	WinNT
#	Modification time:	15. 06. 2019 19:55

#	Program:	/corina/corina34_cracker 3.40 0067  02.08.2006

@<TRIPOS>MOLECULE
ASD01910484
  43   46    0    0    0
SMALL
NO_CHARGES


@<TRIPOS>ATOM
   1 C1             1.7980     0.3923    -0.5067 C.ar    
   2 C2             1.5992    -1.0016    -0.0391 C.2     
   3 N3             0.5641    -1.8135    -0.3523 N.2     
   4 C4             0.7972    -2.9389     0.2759 C.2     
   5 O5             1.9457    -2.7869     0.9427 O.3     
   6 N6             2.3951    -1.6772     0.7487 N.2     
   7 C7            -0.0671    -4.1731     0.2516 C.3     
   8 C8             0.7366    -5.3485    -0.3096 C.3     
   9 C9            -0.1502    -6.5946    -0.3653 C.3     
  10 C10           -0.6079    -6.9545     1.0516 C.3     
  11 N11           -1.2547    -5.7800     1.6523 N.am    
  12 C12           -0.5238    -4.5056     1.6755 C.3     
  13 C13           -2.4950    -5.8699     2.1721 C.2     
  14 C14           -3.2637    -7.1197     2.0326 C.2     
  15 O15           -2.9798    -4.9198     2.7562 O.2     
  16 C16            2.9205     1.1145    -0.0996 C.ar    
  17 C17            3.0993     2.4135    -0.5395 C.ar    
  18 C18            2.1684     2.9951    -1.3797 C.ar    
  19 C19            1.0537     2.2827    -1.7855 C.ar    
  20 C20            0.8675     0.9838    -1.3589 C.ar    
  21 F21            3.8298     0.5464     0.7223 F       
  22 C22           -3.4022    -7.9841     0.8503 C.2     
  23 N23           -4.1769    -8.9584     1.2258 N.2     
  24 O24           -4.5231    -8.8508     2.3766 O.3     
  25 C25           -4.0228    -7.7680     2.9761 C.2     
  26 C26           -4.2540    -7.3367     4.4015 C.3     
  27 H27           -0.9386    -3.9946    -0.3782 H       
  28 H28            1.0837    -5.1046    -1.3136 H       
  29 H29            1.5947    -5.5419     0.3341 H       
  30 H30           -1.0212    -6.3936    -0.9890 H       
  31 H31            0.4158    -7.4253    -0.7868 H       
  32 H32           -1.3181    -7.7802     1.0075 H       
  33 H33            0.2548    -7.2435     1.6519 H       
  34 H34            0.3457    -4.5949     2.3267 H       
  35 H35           -1.1786    -3.7155     2.0431 H       
  36 H36            3.9672     2.9744    -0.2257 H       
  37 H37            2.3116     4.0098    -1.7206 H       
  38 H38            0.3299     2.7430    -2.4418 H       
  39 H39           -0.0031     0.4296    -1.6772 H       
  40 H40           -2.9555    -7.8400    -0.1223 H       
  41 H41           -4.9093    -8.0536     4.8962 H       
  42 H42           -3.3002    -7.2932     4.9272 H       
  43 H43           -4.7198    -6.3513     4.4119 H       
@<TRIPOS>BOND
   1    1    2 1
   2    1   16 ar
   3    1   20 ar
   4    2    3 1
   5    2    6 2
   6    3    4 2
   7    4    5 1
   8    4    7 1
   9    5    6 1
  10    7    8 1
  11    7   12 1
  12    7   27 1
  13    8    9 1
  14    8   28 1
  15    8   29 1
  16    9   10 1
  17    9   30 1
  18    9   31 1
  19   10   11 1
  20   10   32 1
  21   10   33 1
  22   11   12 1
  23   11   13 am
  24   12   34 1
  25   12   35 1
  26   13   14 1
  27   13   15 2
  28   14   22 1
  29   14   25 2
  30   16   17 ar
  31   16   21 1
  32   17   18 ar
  33   17   36 1
  34   18   19 ar
  35   18   37 1
  36   19   20 ar
  37   19   38 1
  38   20   39 1
  39   22   23 2
  40   22   40 1
  41   23   24 1
  42   24   25 1
  43   25   26 1
  44   26   41 1
  45   26   42 1
  46   26   43 1

#	End of record

