#	Name: ASD08150473
#	Creating user name:	WinNT
#	Creation time:	15. 06. 2019 21:16

#	Modifying user name:	WinNT
#	Modification time:	15. 06. 2019 21:16

#	Program:	/corina/corina34_cracker 3.40 0067  02.08.2006

@<TRIPOS>MOLECULE
ASD08150473
  53   58    0    0    0
SMALL
NO_CHARGES


@<TRIPOS>ATOM
   1 N1             0.0711     1.6062    -0.2575 N.am    
   2 C2             0.3082     0.3292     0.1003 C.2     
   3 C3             1.5575    -0.2730    -0.1523 C.2     
   4 C4             2.5443     0.4311    -0.7630 C.2     
   5 C5             2.2983     1.7748    -1.1409 C.ar    
   6 C6             3.2870     2.5491    -1.7779 C.ar    
   7 N7             3.0572     3.7882    -2.1257 N.ar    
   8 C8             1.8794     4.3902    -1.9001 C.ar    
   9 C9             0.8268     3.6868    -1.2646 C.ar    
  10 C10            1.0435     2.3442    -0.8752 C.ar    
  11 C11           -0.3965     4.3238    -1.0332 C.ar    
  12 C12           -0.5657     5.6399    -1.4293 C.ar    
  13 C13            0.4801     6.3296    -2.0574 C.ar    
  14 C14            1.6756     5.7239    -2.2900 C.ar    
  15 O15           -0.5693    -0.3142     0.6503 O.2     
  16 C16           -1.8612     6.3233    -1.1878 C.2     
  17 C17           -1.1802     2.1798    -0.0008 C.ar    
  18 C18           -2.2223     2.0053    -0.9022 C.ar    
  19 C19           -3.4558     2.5710    -0.6489 C.ar    
  20 C20           -3.6546     3.3141     0.5067 C.ar    
  21 C21           -2.6127     3.4891     1.4080 C.ar    
  22 C22           -1.3812     2.9187     1.1583 C.ar    
  23 N23           -4.9083     3.8888     0.7639 N.pl3   
  24 C24           -5.6414     3.7523     1.8989 C.2     
  25 C25           -3.0475     5.7196    -0.7270 C.2     
  26 N26           -6.7471     4.4328     1.7640 N.2     
  27 C27           -6.7629     5.0203     0.5584 C.2     
  28 C28           -5.6219     4.6992    -0.0807 C.2     
  29 C29           -7.8644     5.8936     0.0152 C.3     
  30 N30           -3.9668     6.6443    -0.6414 N.2     
  31 N31           -3.4088     7.8648    -1.0408 N.pl3   
  32 C32           -2.1178     7.6515    -1.3663 C.2     
  33 C33           -4.5864     2.3822    -1.6272 C.3     
  34 F34           -4.1954     1.4814    -2.6237 F       
  35 F35           -5.7050     1.8776    -0.9553 F       
  36 F36           -4.9085     3.6122    -2.2107 F       
  37 H37            1.7302    -1.2979     0.1414 H       
  38 H38            3.5032    -0.0259    -0.9580 H       
  39 H39            4.2529     2.1115    -1.9825 H       
  40 H40           -1.2033     3.7932    -0.5496 H       
  41 H41            0.3346     7.3556    -2.3616 H       
  42 H42            2.4707     6.2705    -2.7753 H       
  43 H43           -2.0676     1.4275    -1.8014 H       
  44 H44           -2.7675     4.0679     2.3066 H       
  45 H45           -0.5710     3.0545     1.8595 H       
  46 H46           -5.3575     3.1766     2.7675 H       
  47 H47           -3.1751     4.6745    -0.4863 H       
  48 H48           -5.3285     5.0139    -1.0713 H       
  49 H49           -7.6692     6.9324     0.2815 H       
  50 H50           -7.9025     5.7976    -1.0699 H       
  51 H51           -8.8183     5.5824     0.4412 H       
  52 H52           -3.8704     8.7173    -1.0740 H       
  53 H53           -1.4160     8.3959    -1.7124 H       
@<TRIPOS>BOND
   1    1    2 am
   2    1   10 1
   3    1   17 1
   4    2    3 1
   5    2   15 2
   6    3    4 2
   7    3   37 1
   8    4    5 1
   9    4   38 1
  10    5    6 ar
  11    5   10 ar
  12    6    7 ar
  13    6   39 1
  14    7    8 ar
  15    8    9 ar
  16    8   14 ar
  17    9   10 ar
  18    9   11 ar
  19   11   12 ar
  20   11   40 1
  21   12   13 ar
  22   12   16 1
  23   13   14 ar
  24   13   41 1
  25   14   42 1
  26   16   25 1
  27   16   32 2
  28   17   18 ar
  29   17   22 ar
  30   18   19 ar
  31   18   43 1
  32   19   20 ar
  33   19   33 1
  34   20   21 ar
  35   20   23 1
  36   21   22 ar
  37   21   44 1
  38   22   45 1
  39   23   24 1
  40   23   28 1
  41   24   26 2
  42   24   46 1
  43   25   30 2
  44   25   47 1
  45   26   27 1
  46   27   28 2
  47   27   29 1
  48   28   48 1
  49   29   49 1
  50   29   50 1
  51   29   51 1
  52   30   31 1
  53   31   32 1
  54   31   52 1
  55   32   53 1
  56   33   34 1
  57   33   35 1
  58   33   36 1

#	End of record

