#	Name: ASD01883634
#	Creating user name:	WinNT
#	Creation time:	15. 06. 2019 19:46

#	Modifying user name:	WinNT
#	Modification time:	15. 06. 2019 19:46

#	Program:	/corina/corina34_cracker 3.40 0067  02.08.2006

@<TRIPOS>MOLECULE
ASD01883634
  50   53    0    0    0
SMALL
NO_CHARGES


@<TRIPOS>ATOM
   1 C1            -0.0168     1.3851     0.0097 C.2     
   2 C2             0.0021    -0.0041     0.0020 C.2     
   3 C3            -1.2077    -0.7046     0.0098 C.2     
   4 C4            -2.3913    -0.0542     0.0245 C.2     
   5 N5            -2.4610     1.3064     0.0320 N.pl3   
   6 C6            -1.3167     2.0619     0.0319 C.2     
   7 C7            -3.5146     2.1815     0.0463 C.2     
   8 C8            -2.9968     3.4281     0.0477 C.2     
   9 N9            -1.6629     3.3358     0.0399 N.2     
  10 C10           -4.9776     1.8203     0.0573 C.3     
  11 C11           -5.5157     1.8280    -1.3749 C.3     
  12 F12           -4.8108     0.8950    -2.1429 F       
  13 F13           -6.8739     1.4927    -1.3646 F       
  14 F14           -5.3544     3.1034    -1.9268 F       
  15 C15            1.3126    -0.7478    -0.0149 C.3     
  16 N16            1.6926    -1.1019     1.3592 N.3     
  17 C17            2.8333    -2.0266     1.3681 C.3     
  18 C18            3.1079    -2.4862     2.8018 C.3     
  19 C19            3.4098    -1.2652     3.6751 C.3     
  20 C20            2.2264    -0.2957     3.6099 C.3     
  21 C21            1.9774     0.1004     2.1528 C.3     
  22 C22            3.6221    -1.7056     5.1005 C.ar    
  23 C23            4.8278    -1.4560     5.7288 C.ar    
  24 C24            5.0226    -1.8600     7.0364 C.ar    
  25 C25            4.0114    -2.5133     7.7158 C.ar    
  26 C26            2.8053    -2.7622     7.0878 C.ar    
  27 C27            2.6091    -2.3543     5.7817 C.ar    
  28 C28            1.2024     2.1362     0.0021 C.1     
  29 N29            2.1695     2.7321    -0.0040 N.1     
  30 H30           -1.1956    -1.7845     0.0035 H       
  31 H31           -3.3065    -0.6276     0.0302 H       
  32 H32           -3.5650     4.3465     0.0576 H       
  33 H33           -5.1033     0.8266     0.4873 H       
  34 H34           -5.5268     2.5472     0.6557 H       
  35 H35            1.2073    -1.6561    -0.6083 H       
  36 H36            2.0840    -0.1148    -0.4535 H       
  37 H37            2.6039    -2.8923     0.7469 H       
  38 H38            3.7144    -1.5201     0.9741 H       
  39 H39            2.2320    -3.0048     3.1917 H       
  40 H40            3.9644    -3.1603     2.8101 H       
  41 H41            4.3082    -0.7685     3.3087 H       
  42 H42            1.3367    -0.7799     4.0125 H       
  43 H43            2.4531     0.5952     4.1956 H       
  44 H44            2.8625     0.5969     1.7551 H       
  45 H45            1.1263     0.7795     2.1014 H       
  46 H46            5.6178    -0.9455     5.1980 H       
  47 H47            5.9649    -1.6656     7.5270 H       
  48 H48            4.1638    -2.8296     8.7371 H       
  49 H49            2.0155    -3.2729     7.6185 H       
  50 H50            1.6668    -2.5487     5.2911 H       
@<TRIPOS>BOND
   1    1    2 2
   2    1   28 1
   3    1    6 1
   4    2    3 1
   5    2   15 1
   6    3    4 2
   7    3   30 1
   8    4    5 1
   9    4   31 1
  10    5    6 1
  11    5    7 1
  12    6    9 2
  13    7    8 2
  14    7   10 1
  15    8    9 1
  16    8   32 1
  17   10   11 1
  18   10   33 1
  19   10   34 1
  20   11   12 1
  21   11   13 1
  22   11   14 1
  23   15   16 1
  24   15   35 1
  25   15   36 1
  26   16   17 1
  27   16   21 1
  28   17   18 1
  29   17   37 1
  30   17   38 1
  31   18   19 1
  32   18   39 1
  33   18   40 1
  34   19   20 1
  35   19   22 1
  36   19   41 1
  37   20   21 1
  38   20   42 1
  39   20   43 1
  40   21   44 1
  41   21   45 1
  42   22   23 ar
  43   22   27 ar
  44   23   24 ar
  45   23   46 1
  46   24   25 ar
  47   24   47 1
  48   25   26 ar
  49   25   48 1
  50   26   27 ar
  51   26   49 1
  52   27   50 1
  53   28   29 3

#	End of record

