#	Name: ASD08170034
#	Creating user name:	WinNT
#	Creation time:	15. 06. 2019 21:17

#	Modifying user name:	WinNT
#	Modification time:	15. 06. 2019 21:17

#	Program:	/corina/corina34_cracker 3.40 0067  02.08.2006

@<TRIPOS>MOLECULE
ASD08170034
  61   63    0    0    0
SMALL
NO_CHARGES


@<TRIPOS>ATOM
   1 C1             1.6759     0.8612    -0.0987 C.3     
   2 C2             1.4024    -0.6196    -0.1590 C.2     
   3 C3            -0.1026    -2.4481    -0.0301 C.2     
   4 N4             0.7822    -3.3730    -0.2511 N.2     
   5 N5             0.3862    -4.5717    -0.2643 N.2     
   6 C6            -0.8768    -4.7671    -0.0542 C.2     
   7 S7            -1.6306    -3.1910     0.1887 S.3     
   8 C8            -1.5768    -6.1014    -0.0235 C.3     
   9 C9            -1.5632    -6.6516     1.4041 C.3     
  10 C10           -2.2738    -8.0062     1.4353 C.3     
  11 C11           -2.2603    -8.5565     2.8629 C.3     
  12 C12           -2.9603    -9.8907     2.8936 C.2     
  13 O13            2.3095    -1.3955    -0.3734 O.2     
  14 N14            0.1498    -1.0815     0.0254 N.am    
  15 C15            3.1430     1.1111    -0.3359 C.ar    
  16 C16            3.6111     1.3114    -1.6211 C.ar    
  17 C17            4.9568     1.5406    -1.8386 C.ar    
  18 C18            5.8344     1.5700    -0.7710 C.ar    
  19 C19            5.3662     1.3706     0.5143 C.ar    
  20 C20            4.0198     1.1457     0.7323 C.ar    
  21 O21           -3.4242   -10.3557     1.8741 O.2     
  22 N22           -3.0706   -10.5672     4.0541 N.am    
  23 H23           -2.6995   -10.1953     4.8694 H       
  24 C24           -3.7511   -11.8642     4.0839 C.3     
  25 C25           -3.7375   -12.4145     5.5115 C.3     
  26 C26           -4.3213   -13.8287     5.5185 C.3     
  27 C27           -4.2379   -14.4236     6.9365 C.3     
  28 C28           -5.6997   -14.7393     7.3285 C.3     
  29 C29           -6.4115   -14.8441     5.9563 C.3     
  30 N30           -5.7530   -13.7847     5.1500 N.3     
  31 C31           -5.9343   -14.0278     3.7126 C.3     
  32 H32            1.0920     1.3700    -0.8657 H       
  33 H33            1.3965     1.2426     0.8834 H       
  34 H34           -2.6076    -5.9786    -0.3558 H       
  35 H35           -1.0618    -6.7971    -0.6860 H       
  36 H36           -0.5324    -6.7744     1.7364 H       
  37 H37           -2.0781    -5.9558     2.0665 H       
  38 H38           -3.3047    -7.8835     1.1030 H       
  39 H39           -1.7589    -8.7020     0.7728 H       
  40 H40           -1.2295    -8.6792     3.1952 H       
  41 H41           -2.7752    -7.8607     3.5253 H       
  42 H42           -0.5757    -0.4609     0.1969 H       
  43 H43            2.9255     1.2885    -2.4552 H       
  44 H44            5.3227     1.6964    -2.8428 H       
  45 H45            6.8859     1.7483    -0.9410 H       
  46 H46            6.0519     1.3932     1.3484 H       
  47 H47            3.6540     0.9899     1.7364 H       
  48 H48           -4.7819   -11.7415     3.7516 H       
  49 H49           -3.2361   -12.5600     3.4215 H       
  50 H50           -2.7122   -12.4428     5.8803 H       
  51 H51           -4.3373   -11.7706     6.1548 H       
  52 H52           -3.7738   -14.4597     4.8183 H       
  53 H53           -3.6426   -15.3366     6.9293 H       
  54 H54           -3.8095   -13.6971     7.6270 H       
  55 H55           -5.7590   -15.6851     7.8670 H       
  56 H56           -6.1234   -13.9291     7.9219 H       
  57 H57           -6.2459   -15.8252     5.5110 H       
  58 H58           -7.4776   -14.6423     6.0595 H       
  59 H59           -6.9964   -14.1389     3.4941 H       
  60 H60           -5.5334   -13.1858     3.1483 H       
  61 H61           -5.4077   -14.9390     3.4290 H       
@<TRIPOS>BOND
   1    1    2 1
   2    1   15 1
   3    1   32 1
   4    1   33 1
   5    2   13 2
   6    2   14 am
   7    3    4 2
   8    3    7 1
   9    3   14 1
  10    4    5 1
  11    5    6 2
  12    6    7 1
  13    6    8 1
  14    8    9 1
  15    8   34 1
  16    8   35 1
  17    9   10 1
  18    9   36 1
  19    9   37 1
  20   10   11 1
  21   10   38 1
  22   10   39 1
  23   11   12 1
  24   11   40 1
  25   11   41 1
  26   12   21 2
  27   12   22 am
  28   14   42 1
  29   15   16 ar
  30   15   20 ar
  31   16   17 ar
  32   16   43 1
  33   17   18 ar
  34   17   44 1
  35   18   19 ar
  36   18   45 1
  37   19   20 ar
  38   19   46 1
  39   20   47 1
  40   22   23 1
  41   22   24 1
  42   24   25 1
  43   24   48 1
  44   24   49 1
  45   25   26 1
  46   25   50 1
  47   25   51 1
  48   26   27 1
  49   26   30 1
  50   26   52 1
  51   27   28 1
  52   27   53 1
  53   27   54 1
  54   28   29 1
  55   28   55 1
  56   28   56 1
  57   29   30 1
  58   29   57 1
  59   29   58 1
  60   30   31 1
  61   31   59 1
  62   31   60 1
  63   31   61 1

#	End of record

