#	Name: ASD00069062
#	Creating user name:	WinNT
#	Creation time:	15. 06. 2019 18:29

#	Modifying user name:	WinNT
#	Modification time:	15. 06. 2019 18:29

#	Program:	/corina/corina34_cracker 3.40 0067  02.08.2006

@<TRIPOS>MOLECULE
ASD00069062
  18   18    0    0    0
SMALL
NO_CHARGES


@<TRIPOS>ATOM
   1 C1            -0.0187     1.5258     0.0104 C.3     
   2 C2             0.0021    -0.0041     0.0020 C.3     
   3 C3             1.4167     2.0553    -0.0004 C.3     
   4 C4            -0.7587     2.0326    -1.2291 C.3     
   5 C5            -2.2187     1.6094    -1.4025 C.3     
   6 C6            -1.8807     3.0505    -1.0150 C.3     
   7 H7            -0.5289     1.8773     0.9072 H       
   8 H8             0.5123    -0.3556    -0.8948 H       
   9 H9             0.5293    -0.3651     0.8851 H       
  10 H10           -1.0205    -0.3814     0.0098 H       
  11 H11            1.9269     1.7038    -0.8972 H       
  12 H12            1.4019     3.1452     0.0056 H       
  13 H13            1.9439     1.6943     0.8826 H       
  14 H14           -0.1532     2.1325    -2.1300 H       
  15 H15           -2.5740     1.4313    -2.4175 H       
  16 H16           -2.6521     0.9700    -0.6335 H       
  17 H17           -2.0918     3.3590     0.0089 H       
  18 H18           -2.0136     3.8203    -1.7751 H       
@<TRIPOS>BOND
   1    1    2 1
   2    1    3 1
   3    1    4 1
   4    1    7 1
   5    2    8 1
   6    2    9 1
   7    2   10 1
   8    3   11 1
   9    3   12 1
  10    3   13 1
  11    4    5 1
  12    4    6 1
  13    4   14 1
  14    5    6 1
  15    5   15 1
  16    5   16 1
  17    6   17 1
  18    6   18 1

#	End of record

