#	Name: ASD01812803
#	Creating user name:	WinNT
#	Creation time:	15. 06. 2019 19:29

#	Modifying user name:	WinNT
#	Modification time:	15. 06. 2019 19:29

#	Program:	/corina/corina34_cracker 3.40 0067  02.08.2006

@<TRIPOS>MOLECULE
ASD01812803
  52   56    0    0    0
SMALL
NO_CHARGES


@<TRIPOS>ATOM
   1 N1            -0.0158     1.3147     0.0093 N.ar    
   2 C2             0.0021    -0.0041     0.0020 C.ar    
   3 C3             1.1989    -0.7033    -0.0127 C.ar    
   4 C4             2.3829    -0.0013    -0.0202 C.ar    
   5 C5             2.3448     1.3978    -0.0128 C.ar    
   6 C6             1.0955     2.0332     0.0025 C.ar    
   7 C7             3.8373    -0.3889    -0.0363 C.3     
   8 N8             4.5955     0.8684    -0.0373 N.am    
   9 C9             3.7280     1.8961    -0.0237 C.2     
  10 C10            6.0558     0.9844    -0.0504 C.3     
  11 C11            6.5432     1.0311    -1.4757 C.ar    
  12 C12            6.4763     2.2162    -2.1897 C.ar    
  13 C13            6.9225     2.2630    -3.4976 C.ar    
  14 C14            7.4393     1.1163    -4.0953 C.ar    
  15 C15            7.5038    -0.0726    -3.3714 C.ar    
  16 C16            7.0611    -0.1080    -2.0646 C.ar    
  17 O17            1.0255     3.3856     0.0100 O.3     
  18 O18            4.0429     3.0706    -0.0212 O.2     
  19 C19           -0.2795     3.9677     0.0251 C.3     
  20 C20           -0.1594     5.4699     0.0316 C.ar    
  21 F21            5.9741     3.3272    -1.6078 F       
  22 C22           -1.2995     6.2558     0.0462 C.ar    
  23 C23           -1.1877     7.6357     0.0521 C.ar    
  24 C24            0.0614     8.2273     0.0434 C.ar    
  25 C25            1.1987     7.4418     0.0283 C.ar    
  26 C26            1.0883     6.0636     0.0286 C.ar    
  27 F27           -2.5200     5.6764     0.0543 F       
  28 C28            8.4480     0.1268    -6.2174 C.2     
  29 C29            7.9194     1.1602    -5.4993 C.2     
  30 N30            7.9203     2.2261    -6.3196 N.2     
  31 N31            8.4118     1.8745    -7.4549 N.2     
  32 N32            8.7397     0.6305    -7.4378 N.pl3   
  33 C33            9.3297    -0.1146    -8.5526 C.3     
  34 H34           -0.9309    -0.5480     0.0080 H       
  35 H35            1.2023    -1.7833    -0.0178 H       
  36 H36            4.0797    -0.9721     0.8522 H       
  37 H37            4.0624    -0.9631    -0.9351 H       
  38 H38            6.3524     1.8979     0.4651 H       
  39 H39            6.4932     0.1235     0.4552 H       
  40 H40            6.8700     3.1869    -4.0546 H       
  41 H41            7.9035    -0.9644    -3.8311 H       
  42 H42            7.1155    -1.0283    -1.5021 H       
  43 H43           -0.8289     3.6509    -0.8614 H       
  44 H44           -0.8123     3.6419     0.9185 H       
  45 H45           -2.0762     8.2496     0.0631 H       
  46 H46            0.1488     9.3038     0.0479 H       
  47 H47            2.1743     7.9050     0.0208 H       
  48 H48            1.9776     5.4508     0.0221 H       
  49 H49            8.6056    -0.8863    -5.8782 H       
  50 H50            8.5358    -0.5518    -9.1581 H       
  51 H51            9.9248     0.5612    -9.1669 H       
  52 H52            9.9677    -0.9076    -8.1624 H       
@<TRIPOS>BOND
   1    1    2 ar
   2    1    6 ar
   3    2    3 ar
   4    2   34 1
   5    3    4 ar
   6    3   35 1
   7    4    7 1
   8    4    5 ar
   9    5    6 ar
  10    5    9 1
  11    6   17 1
  12    7    8 1
  13    7   36 1
  14    7   37 1
  15    8    9 am
  16    8   10 1
  17    9   18 2
  18   10   11 1
  19   10   38 1
  20   10   39 1
  21   11   12 ar
  22   11   16 ar
  23   12   13 ar
  24   12   21 1
  25   13   14 ar
  26   13   40 1
  27   14   15 ar
  28   14   29 1
  29   15   16 ar
  30   15   41 1
  31   16   42 1
  32   17   19 1
  33   19   20 1
  34   19   43 1
  35   19   44 1
  36   20   22 ar
  37   20   26 ar
  38   22   23 ar
  39   22   27 1
  40   23   24 ar
  41   23   45 1
  42   24   25 ar
  43   24   46 1
  44   25   26 ar
  45   25   47 1
  46   26   48 1
  47   28   29 2
  48   28   32 1
  49   28   49 1
  50   29   30 1
  51   30   31 2
  52   31   32 1
  53   32   33 1
  54   33   50 1
  55   33   51 1
  56   33   52 1

#	End of record

