#	Name: ASD01142023
#	Creating user name:	WinNT
#	Creation time:	15. 06. 2019 19:01

#	Modifying user name:	WinNT
#	Modification time:	15. 06. 2019 19:01

#	Program:	/corina/corina34_cracker 3.40 0067  02.08.2006

@<TRIPOS>MOLECULE
ASD01142023
  35   37    0    0    0
SMALL
NO_CHARGES


@<TRIPOS>ATOM
   1 C1             0.2980     1.8590     0.5584 C.ar    
   2 C2             0.1558     0.4023     0.5752 C.ar    
   3 C3             1.3047    -0.3963     0.3726 C.ar    
   4 C4             2.5447     0.2001     0.1623 C.ar    
   5 C5             2.6582     1.5982     0.1525 C.ar    
   6 C6             1.5227     2.4038     0.3513 C.ar    
   7 C7             3.6943    -0.6978    -0.0454 C.2     
   8 N8             4.6344    -0.5065    -0.8998 N.2     
   9 C9             4.6568     0.6674    -1.7722 C.3     
  10 C10            4.7911     1.9002    -0.9203 C.2     
  11 N11            3.8545     2.2526    -0.0452 N.am    
  12 C12            4.1162     3.4355     0.7784 C.3     
  13 O13            5.7808     2.5915    -1.0354 O.2     
  14 C14            3.7723    -1.9145     0.7961 C.ar    
  15 C15            4.4966    -3.0232     0.3586 C.ar    
  16 C16            4.5659    -4.1534     1.1471 C.ar    
  17 C17            3.9188    -4.1883     2.3695 C.ar    
  18 C18            3.1989    -3.0917     2.8089 C.ar    
  19 C19            3.1265    -1.9538     2.0318 C.ar    
  20 N20           -1.0279    -0.1577     0.7772 N.2     
  21 C21           -2.0362     0.5592     0.9556 C.1     
  22 S22           -3.2894     1.4502     1.1774 S.2     
  23 H23           -0.5638     2.4932     0.7048 H       
  24 H24            1.2200    -1.4729     0.3813 H       
  25 H25            1.6280     3.4786     0.3383 H       
  26 H26            5.5045     0.6000    -2.4540 H       
  27 H27            3.7292     0.7165    -2.3426 H       
  28 H28            5.0904     3.8502     0.5195 H       
  29 H29            3.3435     4.1826     0.5973 H       
  30 H30            4.1095     3.1538     1.8314 H       
  31 H31            5.0018    -2.9973    -0.5956 H       
  32 H32            5.1261    -5.0127     0.8092 H       
  33 H33            3.9757    -5.0753     2.9830 H       
  34 H34            2.6959    -3.1248     3.7641 H       
  35 H35            2.5645    -1.0982     2.3760 H       
@<TRIPOS>BOND
   1    1    2 ar
   2    1    6 ar
   3    1   23 1
   4    2    3 ar
   5    2   20 1
   6    3    4 ar
   7    3   24 1
   8    4    5 ar
   9    4    7 1
  10    5    6 ar
  11    5   11 1
  12    6   25 1
  13    7    8 2
  14    7   14 1
  15    8    9 1
  16    9   10 1
  17    9   26 1
  18    9   27 1
  19   10   11 am
  20   10   13 2
  21   11   12 1
  22   12   28 1
  23   12   29 1
  24   12   30 1
  25   14   15 ar
  26   14   19 ar
  27   15   16 ar
  28   15   31 1
  29   16   17 ar
  30   16   32 1
  31   17   18 ar
  32   17   33 1
  33   18   19 ar
  34   18   34 1
  35   19   35 1
  36   20   21 2
  37   21   22 2

#	End of record

