#	Name: ASD01814872
#	Creating user name:	WinNT
#	Creation time:	15. 06. 2019 19:33

#	Modifying user name:	WinNT
#	Modification time:	15. 06. 2019 19:33

#	Program:	/corina/corina34_cracker 3.40 0067  02.08.2006

@<TRIPOS>MOLECULE
ASD01814872
  54   57    0    0    0
SMALL
NO_CHARGES


@<TRIPOS>ATOM
   1 C1             0.0621     1.3501     0.2027 C.2     
   2 C2             0.0601    -0.0498     0.1363 C.2     
   3 C3             1.2467    -0.7218     0.0983 C.2     
   4 C4             2.4510     0.0010     0.1265 C.2     
   5 N5             2.4234     1.3676     0.1918 N.am    
   6 C6             1.2315     2.0286     0.2289 C.2     
   7 C7             3.6717    -0.6873     0.0876 C.2     
   8 C8             4.8473     0.0053     0.1149 C.2     
   9 C9             4.8151     1.4106     0.1816 C.2     
  10 C10            3.5716     2.0738     0.2197 C.2     
  11 O11            3.5344     3.2913     0.2772 O.2     
  12 C12            6.0626     2.1773     0.2125 C.2     
  13 O13            6.0249     3.5242     0.2765 O.3     
  14 O14            7.1325     1.5996     0.1805 O.2     
  15 C15            3.6858    -2.1926     0.0163 C.3     
  16 N16            3.8040    -2.6153    -1.3856 N.3     
  17 C17            4.0587    -4.0595    -1.4805 C.3     
  18 C18            4.0960    -4.4724    -2.9538 C.3     
  19 N19            5.1429    -3.7092    -3.6475 N.3     
  20 C20            4.8881    -2.2650    -3.5525 C.3     
  21 C21            4.8509    -1.8520    -2.0793 C.3     
  22 H22            5.0159    -4.2914    -1.0135 H       
  23 C23            5.2553    -4.1111    -4.9804 C.ar    
  24 C24            6.4855    -4.5125    -5.4850 C.ar    
  25 C25            4.1357    -4.1157    -5.8030 C.ar    
  26 C26            4.2504    -4.5135    -7.1203 C.ar    
  27 C27            5.4779    -4.9076    -7.6209 C.ar    
  28 C28            6.5932    -4.9093    -6.8036 C.ar    
  29 C29            4.4014    -5.9681    -3.0571 C.3     
  30 H30            3.1298    -4.2656    -3.4140 H       
  31 C31            3.0365    -4.5188    -8.0133 C.3     
  32 H32           -0.8735     1.8890     0.2285 H       
  33 H33           -0.8735    -0.5923     0.1157 H       
  34 H34            1.2602    -1.8006     0.0474 H       
  35 H35            1.2211     3.1073     0.2804 H       
  36 H36            5.7911    -0.5189     0.0860 H       
  37 H37            6.8740     3.9868     0.2947 H       
  38 H38            4.5339    -2.5753     0.5840 H       
  39 H39            2.7600    -2.5849     0.4372 H       
  40 H40            3.2636    -4.6033    -0.9704 H       
  41 H41            5.6832    -1.7212    -4.0626 H       
  42 H42            3.9309    -2.0331    -4.0195 H       
  43 H43            4.6333    -0.7865    -2.0057 H       
  44 H44            5.8171    -2.0589    -1.6191 H       
  45 H45            7.3570    -4.5140    -4.8471 H       
  46 H46            3.1767    -3.8087    -5.4125 H       
  47 H47            5.5647    -5.2190    -8.6514 H       
  48 H48            7.5503    -5.2176    -7.1977 H       
  49 H49            3.6820    -6.5279    -2.4595 H       
  50 H50            4.3313    -6.2822    -4.0985 H       
  51 H51            5.4085    -6.1597    -2.6868 H       
  52 H52            2.9424    -3.5502    -8.5043 H       
  53 H53            3.1431    -5.2992    -8.7668 H       
  54 H54            2.1460    -4.7109    -7.4148 H       
@<TRIPOS>BOND
   1    1    2 1
   2    1    6 2
   3    1   32 1
   4    2    3 2
   5    2   33 1
   6    3    4 1
   7    3   34 1
   8    4    5 1
   9    4    7 2
  10    5    6 1
  11    5   10 am
  12    6   35 1
  13    7   15 1
  14    7    8 1
  15    8    9 2
  16    8   36 1
  17    9   10 1
  18    9   12 1
  19   10   11 2
  20   12   13 1
  21   12   14 2
  22   13   37 1
  23   15   16 1
  24   15   38 1
  25   15   39 1
  26   16   17 1
  27   16   21 1
  28   17   18 1
  29   17   22 1
  30   17   40 1
  31   18   19 1
  32   18   29 1
  33   18   30 1
  34   19   20 1
  35   19   23 1
  36   20   21 1
  37   20   41 1
  38   20   42 1
  39   21   43 1
  40   21   44 1
  41   23   24 ar
  42   23   25 ar
  43   24   28 ar
  44   24   45 1
  45   25   26 ar
  46   25   46 1
  47   26   27 ar
  48   26   31 1
  49   27   28 ar
  50   27   47 1
  51   28   48 1
  52   29   49 1
  53   29   50 1
  54   29   51 1
  55   31   52 1
  56   31   53 1
  57   31   54 1

#	End of record

