#	Name: ASD02198324
#	Creating user name:	WinNT
#	Creation time:	15. 06. 2019 20:19

#	Modifying user name:	WinNT
#	Modification time:	15. 06. 2019 20:19

#	Program:	/corina/corina34_cracker 3.40 0067  02.08.2006

@<TRIPOS>MOLECULE
ASD02198324
  38   40    0    0    0
SMALL
NO_CHARGES


@<TRIPOS>ATOM
   1 C1             0.4735     1.5470     0.0840 C.2     
   2 C2             0.6335     0.1746     0.1482 C.2     
   3 S3             2.0573     2.2821     0.3189 S.3     
   4 C4             2.7695     0.7370     0.4769 C.2     
   5 N5             1.8734    -0.2004     0.3586 N.2     
   6 N6            -0.4154    -0.7191     0.0044 N.pl3   
   7 C7            -0.7356     2.2325    -0.1353 C.2     
   8 C8            -0.7774     3.7089    -0.0383 C.ar    
   9 O9            -1.7489     1.6103    -0.4054 O.2     
  10 N10            4.1097     0.5134     0.6985 N.pl3   
  11 C11           -1.7100     4.4336    -0.7814 C.ar    
  12 C12            0.1117     4.3812     0.8008 C.ar    
  13 C13            0.0682     5.7577     0.8873 C.ar    
  14 C14           -0.8547     6.4717     0.1446 C.ar    
  15 C15           -1.7438     5.8106    -0.6864 C.ar    
  16 C16            4.5732    -0.7869     0.9318 C.ar    
  17 C17            5.8777    -1.1294     0.6006 C.ar    
  18 C18            6.3340    -2.4122     0.8310 C.ar    
  19 C19            5.4898    -3.3586     1.3932 C.ar    
  20 C20            4.1867    -3.0173     1.7243 C.ar    
  21 C21            3.7305    -1.7334     1.4998 C.ar    
  22 Cl22          -2.8982     6.7152    -1.6152 Cl      
  23 O23            5.9399    -4.6217     1.6193 O.3     
  24 C24            5.0169    -5.5449     2.2007 C.3     
  25 H25           -1.3149    -0.3904    -0.1495 H       
  26 H26           -0.2502    -1.6734     0.0577 H       
  27 H27            4.7329     1.2567     0.6931 H       
  28 H28           -2.4036     3.9186    -1.4296 H       
  29 H29            0.8324     3.8252     1.3820 H       
  30 H30            0.7561     6.2787     1.5367 H       
  31 H31           -0.8851     7.5489     0.2164 H       
  32 H32            6.5349    -0.3928     0.1627 H       
  33 H33            7.3483    -2.6788     0.5732 H       
  34 H34            3.5301    -3.7548     2.1619 H       
  35 H35            2.7160    -1.4678     1.7580 H       
  36 H36            4.6925    -5.1713     3.1719 H       
  37 H37            4.1522    -5.6548     1.5463 H       
  38 H38            5.5022    -6.5126     2.3273 H       
@<TRIPOS>BOND
   1    1    2 2
   2    1    3 1
   3    1    7 1
   4    2    6 1
   5    2    5 1
   6    3    4 1
   7    4    5 2
   8    4   10 1
   9    6   25 1
  10    6   26 1
  11    7    8 1
  12    7    9 2
  13    8   11 ar
  14    8   12 ar
  15   10   16 1
  16   10   27 1
  17   11   15 ar
  18   11   28 1
  19   12   13 ar
  20   12   29 1
  21   13   14 ar
  22   13   30 1
  23   14   15 ar
  24   14   31 1
  25   15   22 1
  26   16   17 ar
  27   16   21 ar
  28   17   18 ar
  29   17   32 1
  30   18   19 ar
  31   18   33 1
  32   19   20 ar
  33   19   23 1
  34   20   21 ar
  35   20   34 1
  36   21   35 1
  37   23   24 1
  38   24   36 1
  39   24   37 1
  40   24   38 1

#	End of record

