#	Name: ASD03092974
#	Creating user name:	WinNT
#	Creation time:	15. 06. 2019 20:33

#	Modifying user name:	WinNT
#	Modification time:	15. 06. 2019 20:33

#	Program:	/corina/corina34_cracker 3.40 0067  02.08.2006

@<TRIPOS>MOLECULE
ASD03092974
  39   42    0    0    0
SMALL
NO_CHARGES


@<TRIPOS>ATOM
   1 N1            -0.0204     1.6518     0.0111 N.am    
   2 S2             0.0021    -0.0041     0.0020 S.o2    
   3 O3             1.3604    -0.3860    -0.1664 O.2     
   4 O4            -0.7920    -0.4222     1.1038 O.2     
   5 C5            -0.8462    -0.5292    -1.4503 C.ar    
   6 C6            -2.2107    -0.7471    -1.4131 C.ar    
   7 C7            -2.8762    -1.1591    -2.5525 C.ar    
   8 C8            -2.1772    -1.3528    -3.7293 C.ar    
   9 C9            -0.8128    -1.1340    -3.7668 C.ar    
  10 C10           -0.1480    -0.7179    -2.6284 C.ar    
  11 C11           -2.9025    -1.8029    -4.9712 C.3     
  12 H12           -3.8251    -2.3580    -4.8017 H       
  13 C13           -2.0535    -2.1965    -6.1816 C.3     
  14 C14           -2.8444    -0.8860    -6.1947 C.3     
  15 H15           -2.2816     0.0428    -6.1013 H       
  16 C16           -4.0670    -0.8199    -7.0734 C.2     
  17 N17           -4.7733     0.2493    -7.3444 N.2     
  18 C18           -5.7635    -0.1681    -8.1653 C.2     
  19 N19           -5.6018    -1.4537    -8.3427 N.2     
  20 O20           -4.6307    -1.8403    -7.7273 O.3     
  21 C21           -6.8336     0.6746    -8.7540 C.ar    
  22 C22           -6.8783     2.0401    -8.4793 C.ar    
  23 C23           -7.8745     2.8201    -9.0291 C.ar    
  24 C24           -8.8299     2.2475    -9.8535 C.ar    
  25 F25           -9.8038     3.0149   -10.3900 F       
  26 C26           -8.7888     0.8903   -10.1297 C.ar    
  27 C27           -7.7932     0.1039    -9.5879 C.ar    
  28 H28            0.8130     2.1481     0.0058 H       
  29 H29           -0.8669     2.1253     0.0177 H       
  30 H30           -2.7569    -0.5958    -0.4937 H       
  31 H31           -3.9422    -1.3300    -2.5233 H       
  32 H32           -0.2666    -1.2856    -4.6860 H       
  33 H33            0.9174    -0.5433    -2.6586 H       
  34 H34           -0.9704    -2.1299    -6.0797 H       
  35 H35           -2.4178    -3.0103    -6.8086 H       
  36 H36           -6.1343     2.4871    -7.8365 H       
  37 H37           -7.9102     3.8783    -8.8164 H       
  38 H38           -9.5352     0.4481   -10.7730 H       
  39 H39           -7.7595    -0.9531    -9.8069 H       
@<TRIPOS>BOND
   1    1    2 am
   2    1   28 1
   3    1   29 1
   4    2    3 2
   5    2    4 2
   6    2    5 1
   7    5   10 ar
   8    5    6 ar
   9    6    7 ar
  10    6   30 1
  11    7    8 ar
  12    7   31 1
  13    8    9 ar
  14    8   11 1
  15    9   10 ar
  16    9   32 1
  17   10   33 1
  18   11   12 1
  19   11   14 1
  20   11   13 1
  21   13   14 1
  22   13   34 1
  23   13   35 1
  24   14   15 1
  25   14   16 1
  26   16   20 1
  27   16   17 2
  28   17   18 1
  29   18   19 2
  30   18   21 1
  31   19   20 1
  32   21   27 ar
  33   21   22 ar
  34   22   23 ar
  35   22   36 1
  36   23   24 ar
  37   23   37 1
  38   24   25 1
  39   24   26 ar
  40   26   27 ar
  41   26   38 1
  42   27   39 1

#	End of record

