#	Name: ASD06140024
#	Creating user name:	WinNT
#	Creation time:	15. 06. 2019 21:05

#	Modifying user name:	WinNT
#	Modification time:	15. 06. 2019 21:05

#	Program:	/corina/corina34_cracker 3.40 0067  02.08.2006

@<TRIPOS>MOLECULE
ASD06140024
  37   40    0    0    0
SMALL
NO_CHARGES


@<TRIPOS>ATOM
   1 C1            -0.0167     1.3787     0.0096 C.ar    
   2 C2             0.0021    -0.0041     0.0020 C.ar    
   3 C3             1.2071    -0.6824    -0.0127 C.ar    
   4 C4             2.3964     0.0196    -0.0199 C.ar    
   5 C5             2.3812     1.4088    -0.0127 C.ar    
   6 C6             1.1688     2.0870     0.0021 C.ar    
   7 N7             3.5826     2.1222    -0.0195 N.pl3   
   8 C8             4.8930     1.4431    -0.0342 C.3     
   9 C9             5.7841     2.1298    -1.0747 C.3     
  10 O10            5.8208     3.5393    -0.8294 O.3     
  11 C11            4.5543     4.1819    -0.9770 C.3     
  12 C12            3.6113     3.4942    -0.0186 C.2     
  13 C13            4.7502     5.6687    -0.8344 C.ar    
  14 C14            3.9647     6.3565     0.0950 C.ar    
  15 C15            2.9781     5.6204     0.9128 C.2     
  16 C16            2.8646     4.2155     0.8346 C.2     
  17 C17            5.6755     6.3441    -1.5959 C.ar    
  18 C18            5.8286     7.7120    -1.4433 C.ar    
  19 C19            5.0541     8.4022    -0.5275 C.ar    
  20 C20            4.1235     7.7343     0.2419 C.ar    
  21 O21            2.2468     6.2390     1.6654 O.2     
  22 O22            4.0911     3.9179    -2.3028 O.3     
  23 H23           -0.9596     1.9053     0.0170 H       
  24 H24           -0.9265    -0.5555     0.0080 H       
  25 H25            1.2182    -1.7623    -0.0183 H       
  26 H26            3.3371    -0.5107    -0.0307 H       
  27 H27            1.1535     3.1668     0.0073 H       
  28 H28            5.3551     1.5173     0.9501 H       
  29 H29            4.7592     0.3948    -0.3012 H       
  30 H30            6.7940     1.7247    -1.0105 H       
  31 H31            5.3842     1.9461    -2.0719 H       
  32 H32            2.1633     3.7069     1.4794 H       
  33 H33            6.2819     5.8084    -2.3113 H       
  34 H34            6.5554     8.2421    -2.0410 H       
  35 H35            5.1784     9.4691    -0.4145 H       
  36 H36            3.5208     8.2763     0.9556 H       
  37 H37            4.6795     4.2444    -2.9973 H       
@<TRIPOS>BOND
   1    1    2 ar
   2    1    6 ar
   3    1   23 1
   4    2    3 ar
   5    2   24 1
   6    3    4 ar
   7    3   25 1
   8    4    5 ar
   9    4   26 1
  10    5    6 ar
  11    5    7 1
  12    6   27 1
  13    7    8 1
  14    7   12 1
  15    8    9 1
  16    8   28 1
  17    8   29 1
  18    9   10 1
  19    9   30 1
  20    9   31 1
  21   10   11 1
  22   11   12 1
  23   11   13 1
  24   11   22 1
  25   12   16 2
  26   13   14 ar
  27   13   17 ar
  28   14   15 1
  29   14   20 ar
  30   15   16 1
  31   15   21 2
  32   16   32 1
  33   17   18 ar
  34   17   33 1
  35   18   19 ar
  36   18   34 1
  37   19   20 ar
  38   19   35 1
  39   20   36 1
  40   22   37 1

#	End of record

