#	Name: ASD04882031
#	Creating user name:	WinNT
#	Creation time:	15. 06. 2019 20:53

#	Modifying user name:	WinNT
#	Modification time:	15. 06. 2019 20:53

#	Program:	/corina/corina34_cracker 3.40 0067  02.08.2006

@<TRIPOS>MOLECULE
ASD04882031
  79   82    0    0    0
SMALL
NO_CHARGES


@<TRIPOS>ATOM
   1 C1             1.4974     1.4232     1.7937 C.ar    
   2 C2             1.4656     0.0429     1.8115 C.ar    
   3 C3             2.6498    -0.6765     1.9138 C.ar    
   4 C4             3.8621    -0.0039     1.9978 C.ar    
   5 C5             3.8868     1.3770     1.9795 C.ar    
   6 C6             2.7064     2.0897     1.8776 C.ar    
   7 C7             5.1491    -0.7800     2.1094 C.3     
   8 N8             2.6212    -2.0728     1.9325 N.3     
   9 C9             3.2374    -2.6285     0.7196 C.3     
  10 C10            3.2579    -4.1559     0.8150 C.3     
  11 N11            1.8846    -4.6523     0.9793 N.3     
  12 C12            1.2683    -4.0966     2.1922 C.3     
  13 C13            1.2478    -2.5692     2.0968 C.3     
  14 C14            1.8561    -6.0443     0.9980 C.ar    
  15 C15            2.1956    -6.7647    -0.1504 C.ar    
  16 C16            2.1677    -8.1462    -0.1315 C.ar    
  17 C17            1.7996    -8.8188     1.0371 C.ar    
  18 C18            1.4611    -8.0923     2.1822 C.ar    
  19 C19            1.4954    -6.7157     2.1607 C.ar    
  20 C20            1.7679   -10.2935     1.0618 C.2     
  21 N21            1.4128   -10.9412     2.1891 N.am    
  22 O22            2.0621   -10.9247     0.0650 O.2     
  23 C23            1.3813   -12.4056     2.2137 C.3     
  24 C24            0.9495   -12.8833     3.6015 C.3     
  25 C25            0.9166   -14.4127     3.6271 C.3     
  26 N26            0.5030   -14.8701     4.9560 N.am    
  27 C27           -0.8894   -15.1097     5.3532 C.3     
  28 C28           -0.8776   -15.1426     6.8976 C.3     
  29 C29            0.5798   -15.5667     7.1928 C.3     
  30 C30            1.3506   -15.1298     5.9665 C.2     
  31 O31            2.5571   -15.0224     5.9062 O.2     
  32 N32            2.5638    -6.0864    -1.3206 N.am    
  33 C33            3.3692    -6.6842    -2.2209 C.2     
  34 O34            3.7121    -7.8360    -2.0572 O.2     
  35 C35            3.8436    -5.9214    -3.4309 C.3     
  36 C36            4.7373    -6.8235    -4.2843 C.3     
  37 C37            5.1175    -6.0924    -5.5734 C.3     
  38 C38            6.0055    -7.1717    -3.5025 C.3     
  39 H39            0.5776     1.9829     1.7098 H       
  40 H40            0.5212    -0.4770     1.7464 H       
  41 H41            4.8291     1.9005     2.0448 H       
  42 H42            2.7285     3.1694     1.8632 H       
  43 H43            5.4986    -1.0493     1.1126 H       
  44 H44            5.9016    -0.1664     2.6047 H       
  45 H45            4.9781    -1.6856     2.6914 H       
  46 H46            2.6589    -2.3264    -0.1533 H       
  47 H47            4.2577    -2.2562     0.6268 H       
  48 H48            3.6883    -4.5714    -0.0962 H       
  49 H49            3.8591    -4.4587     1.6723 H       
  50 H50            0.2481    -4.4689     2.2850 H       
  51 H51            1.8469    -4.3988     3.0652 H       
  52 H52            0.8175    -2.1538     3.0080 H       
  53 H53            0.6467    -2.2664     1.2395 H       
  54 H54            2.4294    -8.7049    -1.0179 H       
  55 H55            1.1766    -8.6109     3.0858 H       
  56 H56            1.2334    -6.1564     3.0467 H       
  57 H57            1.1781   -10.4376     2.9843 H       
  58 H58            0.6724   -12.7663     1.4684 H       
  59 H59            2.3745   -12.7942     1.9884 H       
  60 H60            1.6584   -12.5226     4.3468 H       
  61 H61           -0.0437   -12.4947     3.8268 H       
  62 H62            0.2077   -14.7734     2.8818 H       
  63 H63            1.9097   -14.8013     3.4019 H       
  64 H64           -1.5275   -14.3005     4.9980 H       
  65 H65           -1.2353   -16.0649     4.9581 H       
  66 H66           -1.0880   -14.1560     7.3104 H       
  67 H67           -1.5834   -15.8814     7.2774 H       
  68 H68            0.9523   -15.0583     8.0821 H       
  69 H69            0.6453   -16.6479     7.3147 H       
  70 H70            2.2389    -5.1869    -1.4824 H       
  71 H71            2.9834    -5.6012    -4.0188 H       
  72 H72            4.4102    -5.0472    -3.1102 H       
  73 H73            4.1996    -7.7391    -4.5310 H       
  74 H74            5.6551    -5.1768    -5.3268 H       
  75 H75            5.7542    -6.7351    -6.1814 H       
  76 H76            4.2140    -5.8443    -6.1304 H       
  77 H77            5.7347    -7.6926    -2.5841 H       
  78 H78            6.6422    -7.8144    -4.1105 H       
  79 H79            6.5432    -6.2562    -3.2559 H       
@<TRIPOS>BOND
   1    1    2 ar
   2    1    6 ar
   3    1   39 1
   4    2    3 ar
   5    2   40 1
   6    3    4 ar
   7    3    8 1
   8    4    5 ar
   9    4    7 1
  10    5    6 ar
  11    5   41 1
  12    6   42 1
  13    7   43 1
  14    7   44 1
  15    7   45 1
  16    8    9 1
  17    8   13 1
  18    9   10 1
  19    9   46 1
  20    9   47 1
  21   10   11 1
  22   10   48 1
  23   10   49 1
  24   11   12 1
  25   11   14 1
  26   12   13 1
  27   12   50 1
  28   12   51 1
  29   13   52 1
  30   13   53 1
  31   14   15 ar
  32   14   19 ar
  33   15   16 ar
  34   15   32 1
  35   16   17 ar
  36   16   54 1
  37   17   18 ar
  38   17   20 1
  39   18   19 ar
  40   18   55 1
  41   19   56 1
  42   20   21 am
  43   20   22 2
  44   21   23 1
  45   21   57 1
  46   23   24 1
  47   23   58 1
  48   23   59 1
  49   24   25 1
  50   24   60 1
  51   24   61 1
  52   25   26 1
  53   25   62 1
  54   25   63 1
  55   26   27 1
  56   26   30 am
  57   27   28 1
  58   27   64 1
  59   27   65 1
  60   28   29 1
  61   28   66 1
  62   28   67 1
  63   29   30 1
  64   29   68 1
  65   29   69 1
  66   30   31 2
  67   32   33 am
  68   32   70 1
  69   33   34 2
  70   33   35 1
  71   35   36 1
  72   35   71 1
  73   35   72 1
  74   36   37 1
  75   36   38 1
  76   36   73 1
  77   37   74 1
  78   37   75 1
  79   37   76 1
  80   38   77 1
  81   38   78 1
  82   38   79 1

#	End of record

