#	Name: ASD03082171
#	Creating user name:	WinNT
#	Creation time:	15. 06. 2019 20:27

#	Modifying user name:	WinNT
#	Modification time:	15. 06. 2019 20:27

#	Program:	/corina/corina34_cracker 3.40 0067  02.08.2006

@<TRIPOS>MOLECULE
ASD03082171
  59   62    0    0    0
SMALL
NO_CHARGES


@<TRIPOS>ATOM
   1 C1            -0.0073     1.4142    -0.1192 C.ar    
   2 C2            -1.1949     1.8688     0.4390 C.ar    
   3 C3            -2.3664     1.1660     0.2346 C.ar    
   4 C4            -2.3571     0.0090    -0.5257 C.ar    
   5 C5            -1.1739    -0.4462    -1.0834 C.ar    
   6 C6            -0.0016     0.2565    -0.8868 C.ar    
   7 C7            -1.1671    -1.7059    -1.9105 C.3     
   8 N8             1.1801     2.1242     0.0865 N.pl3   
   9 C9             4.4045    -1.5462     0.1646 C.ar    
  10 C10            3.6478    -2.6336    -0.2695 C.ar    
  11 C11            5.7217    -1.7713     0.5870 C.ar    
  12 C12            6.2100    -3.0608     0.5538 C.ar    
  13 C13            5.4033    -4.1008     0.1097 C.ar    
  14 N14            4.1546    -3.8457    -0.2841 N.ar    
  15 N15            4.5292     0.9730     0.2455 N.pl3   
  16 C16            3.8314    -0.1830     0.1734 C.2     
  17 N17            3.5820     2.0094     0.2234 N.2     
  18 C18            2.3994     1.4458     0.1361 C.2     
  19 N19            2.5497     0.1201     0.1115 N.2     
  20 C20            5.9844     1.1156     0.3353 C.3     
  21 C21            6.3988     1.2010     1.8056 C.3     
  22 F22            0.1324    -1.9602    -2.3620 F       
  23 F23           -1.6077    -2.7793    -1.1289 F       
  24 F24           -2.0196    -1.5476    -3.0084 F       
  25 F25           -3.5039    -0.6773    -0.7236 F       
  26 C26            7.8958     1.3478     1.8979 C.2     
  27 N27            8.4905     1.4423     3.1037 N.am    
  28 O28            8.5653     1.3807     0.8873 O.2     
  29 C29            9.9458     1.5850     3.1934 C.3     
  30 C30            7.6817     1.4025     4.3245 C.3     
  31 C31            7.5593    -3.6244     0.9346 C.3     
  32 C32            7.4374    -5.1317     0.6553 C.3     
  33 N33            6.0747    -5.3203     0.1517 N.am    
  34 C34            5.5465    -6.5040    -0.2177 C.2     
  35 O35            4.4384    -6.5468    -0.7086 O.2     
  36 C36            6.3328    -7.7744    -0.0205 C.3     
  37 H37           -1.2025     2.7709     1.0328 H       
  38 H38           -3.2902     1.5191     0.6685 H       
  39 H39            0.9208    -0.0986    -1.3222 H       
  40 H40            1.1565     3.0879     0.1947 H       
  41 H41            2.6309    -2.4776    -0.5980 H       
  42 H42            6.3397    -0.9546     0.9299 H       
  43 H43            6.4633     0.2527    -0.1276 H       
  44 H44            6.2931     2.0237    -0.1826 H       
  45 H45            5.9199     2.0639     2.2685 H       
  46 H46            6.0901     0.2929     2.3235 H       
  47 H47           10.2545     2.4931     2.6756 H       
  48 H48           10.2410     1.6458     4.2409 H       
  49 H49           10.4247     0.7221     2.7306 H       
  50 H50            7.5794     0.3702     4.6591 H       
  51 H51            8.1692     1.9899     5.1026 H       
  52 H52            6.6949     1.8178     4.1203 H       
  53 H53            8.3433    -3.1852     0.3177 H       
  54 H54            7.7612    -3.4481     1.9911 H       
  55 H55            8.1643    -5.4367    -0.0974 H       
  56 H56            7.5828    -5.6994     1.5744 H       
  57 H57            7.3302    -7.5312     0.3457 H       
  58 H58            5.8236    -8.4079     0.7057 H       
  59 H59            6.4134    -8.3029    -0.9704 H       
@<TRIPOS>BOND
   1    1    2 ar
   2    1    8 1
   3    1    6 ar
   4    2    3 ar
   5    2   37 1
   6    3    4 ar
   7    3   38 1
   8    4    5 ar
   9    4   25 1
  10    5    6 ar
  11    5    7 1
  12    6   39 1
  13    7   22 1
  14    7   23 1
  15    7   24 1
  16    8   18 1
  17    8   40 1
  18    9   10 ar
  19    9   11 ar
  20    9   16 1
  21   10   14 ar
  22   10   41 1
  23   11   12 ar
  24   11   42 1
  25   12   13 ar
  26   12   31 1
  27   13   14 ar
  28   13   33 1
  29   15   17 1
  30   15   20 1
  31   15   16 1
  32   16   19 2
  33   17   18 2
  34   18   19 1
  35   20   21 1
  36   20   43 1
  37   20   44 1
  38   21   26 1
  39   21   45 1
  40   21   46 1
  41   26   27 am
  42   26   28 2
  43   27   29 1
  44   27   30 1
  45   29   47 1
  46   29   48 1
  47   29   49 1
  48   30   50 1
  49   30   51 1
  50   30   52 1
  51   31   32 1
  52   31   53 1
  53   31   54 1
  54   32   33 1
  55   32   55 1
  56   32   56 1
  57   33   34 am
  58   34   35 2
  59   34   36 1
  60   36   57 1
  61   36   58 1
  62   36   59 1

#	End of record

