#	Name: ASD06170098
#	Creating user name:	WinNT
#	Creation time:	15. 06. 2019 21:05

#	Modifying user name:	WinNT
#	Modification time:	15. 06. 2019 21:05

#	Program:	/corina/corina34_cracker 3.40 0067  02.08.2006

@<TRIPOS>MOLECULE
ASD06170098
  66   70    0    0    0
SMALL
NO_CHARGES


@<TRIPOS>ATOM
   1 N1             0.4017     2.0029    -1.2781 N.pl3   
   2 N2             0.2058     0.9179    -0.4186 N.am    
   3 C3             1.4120     0.4507    -0.0347 C.2     
   4 C4             2.4179     1.2971    -0.6961 C.2     
   5 C5             1.7194     2.2267    -1.4417 C.2     
   6 C6             3.8765     1.1773    -0.5848 C.2     
   7 O7             4.5981     1.9486    -1.1891 O.2     
   8 N8             4.4166     0.2131     0.1866 N.am    
   9 C9            -1.0329     0.4034    -0.0223 C.ar    
  10 C10           -1.9907     0.0832    -0.9758 C.ar    
  11 C11           -3.2127    -0.4251    -0.5812 C.ar    
  12 C12           -3.4833    -0.6150     0.7615 C.ar    
  13 C13           -2.5320    -0.2968     1.7134 C.ar    
  14 C14           -1.3057     0.2061     1.3251 C.ar    
  15 O15            1.6260    -0.4862     0.7116 O.2     
  16 C16            5.7973     0.0145     0.1902 C.ar    
  17 C17            6.6409     1.0429    -0.2150 C.ar    
  18 C18            8.0083     0.8353    -0.2075 C.ar    
  19 C19            8.4890    -0.4040     0.2083 C.ar    
  20 C20            7.5884    -1.3822     0.5984 C.ar    
  21 N21            6.2900    -1.1485     0.5842 N.ar    
  22 O22            9.8258    -0.6512     0.2308 O.3     
  23 N23           11.8562     0.1170     3.7374 N.ar    
  24 C24           10.5535     0.2669     3.6825 C.ar    
  25 C25            9.8361     0.0179     2.5196 C.ar    
  26 C26           10.5001    -0.4004     1.3796 C.ar    
  27 C27           11.9029    -0.5584     1.4502 C.ar    
  28 C28           12.6444    -0.9790     0.3364 C.ar    
  29 C29           13.9941    -1.1217     0.4359 C.ar    
  30 C30           14.6548    -0.8539     1.6383 C.ar    
  31 C31           13.9551    -0.4400     2.7492 C.ar    
  32 C32           12.5619    -0.2843     2.6734 C.ar    
  33 O33           16.0028    -1.0041     1.7114 O.3     
  34 C34           16.6727    -1.4366     0.5255 C.3     
  35 C35           -0.6680     2.7777    -1.9119 C.3     
  36 C36           -1.0319     3.9677    -1.0219 C.3     
  37 O37            0.0821     4.8589    -0.9391 O.3     
  38 C38           -0.1539     6.0105    -0.1266 C.3     
  39 C39            2.3294     3.3085    -2.2953 C.3     
  40 H40            3.8452    -0.3427     0.7392 H       
  41 H41           -1.7803     0.2320    -2.0246 H       
  42 H42           -3.9579    -0.6742    -1.3221 H       
  43 H43           -4.4398    -1.0123     1.0675 H       
  44 H44           -2.7466    -0.4457     2.7613 H       
  45 H45           -0.5613     0.4499     2.0687 H       
  46 H46            6.2335     1.9916    -0.5318 H       
  47 H47            8.6874     1.6158    -0.5173 H       
  48 H48            7.9539    -2.3457     0.9217 H       
  49 H49           10.0247     0.5925     4.5661 H       
  50 H50            8.7643     0.1498     2.5050 H       
  51 H51           12.1453    -1.1893    -0.5980 H       
  52 H52           14.5613    -1.4461    -0.4240 H       
  53 H53           14.4750    -0.2356     3.6735 H       
  54 H54           16.2855    -2.4098     0.2239 H       
  55 H55           16.5014    -0.7142    -0.2725 H       
  56 H56           17.7422    -1.5157     0.7207 H       
  57 H57           -0.3283     3.1401    -2.8822 H       
  58 H58           -1.5444     2.1439    -2.0474 H       
  59 H59           -1.8864     4.4929    -1.4488 H       
  60 H60           -1.2866     3.6107    -0.0240 H       
  61 H61           -0.9901     6.5781    -0.5350 H       
  62 H62           -0.3903     5.6958     0.8898 H       
  63 H63            0.7386     6.6361    -0.1150 H       
  64 H64            2.4677     4.2089    -1.6967 H       
  65 H65            3.2946     2.9719    -2.6736 H       
  66 H66            1.6671     3.5273    -3.1329 H       
@<TRIPOS>BOND
   1    1    2 1
   2    1    5 1
   3    1   35 1
   4    2    3 am
   5    2    9 1
   6    3    4 1
   7    3   15 2
   8    4    5 2
   9    4    6 1
  10    5   39 1
  11    6    7 2
  12    6    8 am
  13    8   16 1
  14    8   40 1
  15    9   10 ar
  16    9   14 ar
  17   10   11 ar
  18   10   41 1
  19   11   12 ar
  20   11   42 1
  21   12   13 ar
  22   12   43 1
  23   13   14 ar
  24   13   44 1
  25   14   45 1
  26   16   17 ar
  27   16   21 ar
  28   17   18 ar
  29   17   46 1
  30   18   19 ar
  31   18   47 1
  32   19   20 ar
  33   19   22 1
  34   20   21 ar
  35   20   48 1
  36   22   26 1
  37   23   24 ar
  38   23   32 ar
  39   24   25 ar
  40   24   49 1
  41   25   26 ar
  42   25   50 1
  43   26   27 ar
  44   27   28 ar
  45   27   32 ar
  46   28   29 ar
  47   28   51 1
  48   29   30 ar
  49   29   52 1
  50   30   31 ar
  51   30   33 1
  52   31   32 ar
  53   31   53 1
  54   33   34 1
  55   34   54 1
  56   34   55 1
  57   34   56 1
  58   35   36 1
  59   35   57 1
  60   35   58 1
  61   36   37 1
  62   36   59 1
  63   36   60 1
  64   37   38 1
  65   38   61 1
  66   38   62 1
  67   38   63 1
  68   39   64 1
  69   39   65 1
  70   39   66 1

#	End of record

