#	Name: ASD04840051
#	Creating user name:	WinNT
#	Creation time:	15. 06. 2019 20:52

#	Modifying user name:	WinNT
#	Modification time:	15. 06. 2019 20:52

#	Program:	/corina/corina34_cracker 3.40 0067  02.08.2006

@<TRIPOS>MOLECULE
ASD04840051
  38   39    0    0    0
SMALL
NO_CHARGES


@<TRIPOS>ATOM
   1 C1             0.0369     1.6019    -1.1384 C.ar    
   2 C2            -0.0543     0.2235    -1.0041 C.ar    
   3 C3             1.0294    -0.5145    -0.5804 C.ar    
   4 C4             2.2280     0.1259    -0.2842 C.ar    
   5 C5             2.3154     1.5233    -0.4224 C.ar    
   6 C6             1.2049     2.2514    -0.8528 C.ar    
   7 N7             3.4575    -0.3171     0.1494 N.pl3   
   8 C8             4.3113     0.7431     0.2886 C.2     
   9 C9             3.6833     1.8829    -0.0409 C.2     
  10 C10            4.2736     3.2693    -0.0220 C.3     
  11 C11            4.2223     3.8260     1.4022 C.3     
  12 C12            4.2259    -2.3985    -0.8796 C.3     
  13 C13            3.8004    -1.7152     0.4215 C.3     
  14 P14            5.0978     5.4239     1.4619 P.3     
  15 O15            4.5257     6.3381     0.4484 O.2     
  16 O16            4.9305     6.0732     2.9257 O.3     
  17 O17            6.6608     5.1914     1.1535 O.3     
  18 P18            2.4847     4.0663     1.8985 P.3     
  19 O19            1.7740     2.7690     1.8501 O.2     
  20 O20            2.4308     4.6521     3.3972 O.3     
  21 O21            1.7773     5.1038     0.8910 O.3     
  22 H22           -0.8206     2.1651    -1.4756 H       
  23 H23           -0.9841    -0.2756    -1.2336 H       
  24 H24            0.9483    -1.5866    -0.4783 H       
  25 H25            1.2686     3.3242    -0.9599 H       
  26 H26            5.3383     0.6733     0.6155 H       
  27 H27            5.3095     3.2278    -0.3588 H       
  28 H28            3.7013     3.9170    -0.6861 H       
  29 H29            4.7013     3.1236     2.0844 H       
  30 H30            5.0943    -1.8852    -1.2925 H       
  31 H31            4.4810    -3.4387    -0.6771 H       
  32 H32            3.4055    -2.3585    -1.5961 H       
  33 H33            4.6208    -1.7552     1.1381 H       
  34 H34            2.9320    -2.2285     0.8344 H       
  35 H35            4.0124     6.2412     3.1788 H       
  36 H36            6.8420     4.8737     0.2583 H       
  37 H37            1.5350     4.8050     3.7277 H       
  38 H38            2.1917     5.9773     0.8710 H       
@<TRIPOS>BOND
   1    1    2 ar
   2    1    6 ar
   3    1   22 1
   4    2    3 ar
   5    2   23 1
   6    3    4 ar
   7    3   24 1
   8    4    5 ar
   9    4    7 1
  10    5    6 ar
  11    5    9 1
  12    6   25 1
  13    7    8 1
  14    7   13 1
  15    8    9 2
  16    8   26 1
  17    9   10 1
  18   10   11 1
  19   10   27 1
  20   10   28 1
  21   11   14 1
  22   11   18 1
  23   11   29 1
  24   12   13 1
  25   12   30 1
  26   12   31 1
  27   12   32 1
  28   13   33 1
  29   13   34 1
  30   14   15 2
  31   14   16 1
  32   14   17 1
  33   16   35 1
  34   17   36 1
  35   18   19 2
  36   18   20 1
  37   18   21 1
  38   20   37 1
  39   21   38 1

#	End of record

