#	Name: ASD01028670
#	Creating user name:	WinNT
#	Creation time:	15. 06. 2019 18:57

#	Modifying user name:	WinNT
#	Modification time:	15. 06. 2019 18:57

#	Program:	/corina/corina34_cracker 3.40 0067  02.08.2006

@<TRIPOS>MOLECULE
ASD01028670
  77   79    0    0    0
SMALL
NO_CHARGES


@<TRIPOS>ATOM
   1 C1            -1.1145     1.7307     0.3531 C.2     
   2 N2            -0.7555     0.5887    -0.2661 N.am    
   3 C3             0.5460     0.3312    -0.5035 C.2     
   4 O4            -0.2584     2.5233     0.7182 O.co2   
   5 O5            -2.2966     1.9763     0.5453 O.co2   
   6 O6             1.3905     1.1831    -0.2678 O.co2   
   7 O7             0.8820    -0.7542    -0.9544 O.co2   
   8 C8            -1.7800    -0.3727    -0.6813 C.3     
   9 C9            -0.1581    -2.3131    -3.3095 C.2     
  10 C10            0.5286    -2.3511    -4.5383 C.2     
  11 C11            0.7936    -1.1863    -5.1855 C.2     
  12 C12            0.3825     0.0440    -4.6262 C.2     
  13 N13           -0.2598     0.0799    -3.4779 N.2     
  14 N14           -0.5461    -1.1010    -2.7900 N.pl3   
  15 N15           -1.1578    -2.6780    -1.4657 N.2     
  16 N16           -0.5621    -3.2416    -2.4580 N.2     
  17 C17           -1.1723    -1.3780    -1.6254 C.2     
  18 S18            1.5206     1.5087    -6.8845 S.3     
  19 N19            1.3951     3.2009    -6.9074 N.2     
  20 C20            0.7654     3.5624    -5.8288 C.2     
  21 C21            0.3570     2.5882    -4.9518 C.2     
  22 C22            0.6771     1.3057    -5.3388 C.2     
  23 C23            0.4907     5.0172    -5.5475 C.3     
  24 O24           -0.2088     5.1388    -4.3073 O.3     
  25 Si25          -0.5638     6.6760    -3.8938 Si      
  26 C26            1.0126     7.6560    -3.7342 C.3     
  27 C27           -1.6396     7.4402    -5.2089 C.3     
  28 C28           -1.4698     6.6878    -2.2660 C.3     
  29 C29           -0.5863     6.0602    -1.1860 C.3     
  30 C30           -1.8028     8.1299    -1.8781 C.3     
  31 C31           -2.7644     5.8830    -2.3971 C.3     
  32 C32           -2.3291    -1.0963     0.5498 C.3     
  33 C33           -2.8047    -0.0666     1.5767 C.3     
  34 C34           -3.5041    -1.9851     0.1371 C.3     
  35 C35           -1.2278    -1.9608     1.1668 C.3     
  36 C36           -2.9176     0.3674    -1.3876 C.3     
  37 C37           -2.3946     1.6920    -1.9468 C.3     
  38 C38           -3.4527    -0.4941    -2.5332 C.3     
  39 C39           -4.0433     0.6444    -0.3890 C.3     
  40 H40            0.8412    -3.2945    -4.9609 H       
  41 H41            1.3195    -1.2010    -6.1287 H       
  42 H42           -0.1708     2.8088    -4.0357 H       
  43 H43            1.4339     5.5601    -5.4873 H       
  44 H44           -0.1178     5.4339    -6.3502 H       
  45 H45            1.5427     7.6491    -4.6866 H       
  46 H46            0.7754     8.6833    -3.4578 H       
  47 H47            1.6420     7.2089    -2.9648 H       
  48 H48           -2.5619     6.8669    -5.3023 H       
  49 H49           -1.8768     8.4676    -4.9325 H       
  50 H50           -1.1095     7.4334    -6.1612 H       
  51 H51            0.3360     6.6335    -1.0926 H       
  52 H52           -1.1164     6.0671    -0.2336 H       
  53 H53           -0.3491     5.0328    -1.4624 H       
  54 H54           -2.4323     8.5770    -2.6475 H       
  55 H55           -2.3329     8.1367    -0.9257 H       
  56 H56           -0.8805     8.7032    -1.7847 H       
  57 H57           -2.5272     4.8557    -2.6735 H       
  58 H58           -3.2945     5.8899    -1.4447 H       
  59 H59           -3.3939     6.3301    -3.1665 H       
  60 H60           -3.7398     0.3793     1.2379 H       
  61 H61           -2.9632    -0.5575     2.5369 H       
  62 H62           -2.0498     0.7119     1.6869 H       
  63 H63           -3.1294    -2.9575    -0.1824 H       
  64 H64           -4.1764    -2.1156     0.9851 H       
  65 H65           -4.0436    -1.5155    -0.6854 H       
  66 H66           -0.3907    -1.3276     1.4608 H       
  67 H67           -1.6191    -2.4763     2.0439 H       
  68 H68           -0.8891    -2.6944     0.4352 H       
  69 H69           -1.4925     1.5090    -2.5307 H       
  70 H70           -3.1550     2.1427    -2.5846 H       
  71 H71           -2.1636     2.3680    -1.1236 H       
  72 H72           -3.8858    -1.4087    -2.1284 H       
  73 H73           -4.2173     0.0599    -3.0779 H       
  74 H74           -2.6362    -0.7471    -3.2096 H       
  75 H75           -3.6874     1.3321     0.3781 H       
  76 H76           -4.8906     1.0891    -0.9109 H       
  77 H77           -4.3537    -0.2908     0.0771 H       
@<TRIPOS>BOND
   1    1    2 am
   2    1    4 ar
   3    1    5 ar
   4    2    3 am
   5    2    8 1
   6    3    6 ar
   7    3    7 ar
   8    8   17 1
   9    8   32 1
  10    8   36 1
  11    9   10 1
  12    9   14 1
  13    9   16 2
  14   10   11 2
  15   10   40 1
  16   11   12 1
  17   11   41 1
  18   12   13 2
  19   12   22 1
  20   13   14 1
  21   14   17 1
  22   15   16 1
  23   15   17 2
  24   18   19 1
  25   18   22 1
  26   19   20 2
  27   20   21 1
  28   20   23 1
  29   21   22 2
  30   21   42 1
  31   23   24 1
  32   23   43 1
  33   23   44 1
  34   24   25 1
  35   25   26 1
  36   25   27 1
  37   25   28 1
  38   26   45 1
  39   26   46 1
  40   26   47 1
  41   27   48 1
  42   27   49 1
  43   27   50 1
  44   28   29 1
  45   28   30 1
  46   28   31 1
  47   29   51 1
  48   29   52 1
  49   29   53 1
  50   30   54 1
  51   30   55 1
  52   30   56 1
  53   31   57 1
  54   31   58 1
  55   31   59 1
  56   32   33 1
  57   32   34 1
  58   32   35 1
  59   33   60 1
  60   33   61 1
  61   33   62 1
  62   34   63 1
  63   34   64 1
  64   34   65 1
  65   35   66 1
  66   35   67 1
  67   35   68 1
  68   36   37 1
  69   36   38 1
  70   36   39 1
  71   37   69 1
  72   37   70 1
  73   37   71 1
  74   38   72 1
  75   38   73 1
  76   38   74 1
  77   39   75 1
  78   39   76 1
  79   39   77 1

#	End of record

