#	Name: ASD01028338
#	Creating user name:	WinNT
#	Creation time:	15. 06. 2019 18:57

#	Modifying user name:	WinNT
#	Modification time:	15. 06. 2019 18:57

#	Program:	/corina/corina34_cracker 3.40 0067  02.08.2006

@<TRIPOS>MOLECULE
ASD01028338
  39   43    0    0    0
SMALL
NO_CHARGES


@<TRIPOS>ATOM
   1 C1            -0.0171     1.4112     0.0098 C.ar    
   2 C2             0.0021    -0.0041     0.0020 C.ar    
   3 C3             1.2105     2.1123     0.0018 C.ar    
   4 C4             2.3789     1.3725    -0.0133 C.ar    
   5 C5             2.3153    -0.0157    -0.0202 C.ar    
   6 N6             1.1701    -0.6560    -0.0123 N.ar    
   7 O7             1.2414     3.4677     0.0084 O.3     
   8 C8             2.5291     4.0873    -0.0005 C.3     
   9 C9             2.3658     5.5854     0.0086 C.2     
  10 N10            2.2896     6.3723     1.1038 N.pl3   
  11 C11            2.1454     7.6572     0.6386 C.2     
  12 N12            2.1413     7.5879    -0.6827 N.2     
  13 N13            2.2778     6.3599    -1.0442 N.2     
  14 N14            2.3284     6.1246     2.4775 N.2     
  15 C15            2.2274     7.1170     3.3376 C.2     
  16 C16            2.0781     8.4489     2.8889 C.2     
  17 C17            2.0382     8.7185     1.5584 C.2     
  18 C18            2.2700     6.8349     4.7868 C.2     
  19 C19           -1.2173    -0.7034     0.0100 C.ar    
  20 C20           -2.3911    -0.0145     0.0250 C.ar    
  21 C21            2.4077     5.6118     5.3384 C.2     
  22 C22           -2.4066     1.3783     0.0321 C.ar    
  23 C23           -1.2446     2.0892     0.0310 C.ar    
  24 C24            2.4204     5.5994     6.7168 C.2     
  25 C25            2.2946     6.7981     7.2954 C.2     
  26 S26            2.1566     8.0426     6.0605 S.3     
  27 H27            3.3367     1.8715    -0.0201 H       
  28 H28            3.2340    -0.5832    -0.0325 H       
  29 H29            3.0876     3.7773     0.8827 H       
  30 H30            3.0709     3.7864    -0.8971 H       
  31 H31            1.9961     9.2533     3.6050 H       
  32 H32            1.9244     9.7344     1.2099 H       
  33 H33           -1.2228    -1.7834     0.0039 H       
  34 H34           -3.3253    -0.5564     0.0311 H       
  35 H35            2.5004     4.7130     4.7468 H       
  36 H36           -3.3515     1.9011     0.0432 H       
  37 H37           -1.2685     3.1689     0.0369 H       
  38 H38            2.5240     4.6883     7.2874 H       
  39 H39            2.2840     6.9759     8.3606 H       
@<TRIPOS>BOND
   1    1    2 ar
   2    1    3 ar
   3    1   23 ar
   4    2   19 ar
   5    2    6 ar
   6    3    4 ar
   7    3    7 1
   8    4    5 ar
   9    4   27 1
  10    5    6 ar
  11    5   28 1
  12    7    8 1
  13    8    9 1
  14    8   29 1
  15    8   30 1
  16    9   10 1
  17    9   13 2
  18   10   11 1
  19   10   14 1
  20   11   12 2
  21   11   17 1
  22   12   13 1
  23   14   15 2
  24   15   16 1
  25   15   18 1
  26   16   17 2
  27   16   31 1
  28   17   32 1
  29   18   21 2
  30   18   26 1
  31   19   20 ar
  32   19   33 1
  33   20   22 ar
  34   20   34 1
  35   21   24 1
  36   21   35 1
  37   22   23 ar
  38   22   36 1
  39   23   37 1
  40   24   25 2
  41   24   38 1
  42   25   26 1
  43   25   39 1

#	End of record

