#	Name: ASD04880282
#	Creating user name:	WinNT
#	Creation time:	15. 06. 2019 20:53

#	Modifying user name:	WinNT
#	Modification time:	15. 06. 2019 20:53

#	Program:	/corina/corina34_cracker 3.40 0067  02.08.2006

@<TRIPOS>MOLECULE
ASD04880282
  46   49    0    0    0
SMALL
NO_CHARGES


@<TRIPOS>ATOM
   1 C1            -0.0165     1.4669     0.0294 C.3     
   2 N2             0.0029    -0.0045     0.0150 N.am    
   3 N3             1.3273    -0.4374     0.0036 N.2     
   4 C4             2.1929     0.5163     0.0081 C.2     
   5 C5             1.4772     1.8481     0.0249 C.3     
   6 C6            -1.0829    -0.8029     0.0132 C.2     
   7 N7            -0.9345    -2.1424    -0.0005 N.am    
   8 O8            -2.1967    -0.3146     0.0240 O.2     
   9 C9            -3.1289    -2.5882     0.9062 C.ar    
  10 C10           -2.0573    -2.9729     0.1115 C.ar    
  11 C11            3.6564     0.3371    -0.0012 C.ar    
  12 C12            4.4985     1.4518     0.0055 C.ar    
  13 C13            5.8670     1.2820    -0.0032 C.ar    
  14 C14            6.4108     0.0058    -0.0187 C.ar    
  15 C15            5.5772    -1.1103    -0.0258 C.ar    
  16 C16            4.2045    -0.9480    -0.0109 C.ar    
  17 O17            6.1140    -2.3598    -0.0414 O.3     
  18 C18           -2.0988    -4.1800    -0.5723 C.ar    
  19 C19           -3.2060    -5.0002    -0.4632 C.ar    
  20 C20           -4.2773    -4.6199     0.3282 C.ar    
  21 C21           -4.2386    -3.4088     1.0157 C.ar    
  22 O22            7.7606    -0.1560    -0.0272 O.3     
  23 C23            8.5563     1.0310    -0.0196 C.3     
  24 C24            5.2003    -3.4584    -0.0480 C.3     
  25 O25           -5.4654    -5.2370     0.5990 O.3     
  26 C26           -5.9767    -4.5861     1.7771 C.3     
  27 O27           -5.4016    -3.2676     1.7164 O.3     
  28 H28           -0.5135     1.8527    -0.8607 H       
  29 H29           -0.5037     1.8353     0.9321 H       
  30 H30            1.7219     2.4250    -0.8670 H       
  31 H31            1.7317     2.4076     0.9251 H       
  32 H32           -0.0502    -2.5315    -0.0880 H       
  33 H33           -3.0950    -1.6510     1.4419 H       
  34 H34            4.0778     2.4464     0.0171 H       
  35 H35            6.5170     2.1445     0.0016 H       
  36 H36            3.5571    -1.8125    -0.0160 H       
  37 H37           -1.2651    -4.4786    -1.1907 H       
  38 H38           -3.2360    -5.9390    -0.9962 H       
  39 H39            8.3272     1.6276    -0.9026 H       
  40 H40            8.3364     1.6101     0.8773 H       
  41 H41            9.6122     0.7606    -0.0277 H       
  42 H42            4.5774    -3.4183     0.8457 H       
  43 H43            4.5683    -3.4001    -0.9342 H       
  44 H44            5.7580    -4.3948    -0.0604 H       
  45 H45           -7.0648    -4.5313     1.7427 H       
  46 H46           -5.6468    -5.1068     2.6761 H       
@<TRIPOS>BOND
   1    1    2 1
   2    1    5 1
   3    1   28 1
   4    1   29 1
   5    2    3 1
   6    2    6 am
   7    3    4 2
   8    4    5 1
   9    4   11 1
  10    5   30 1
  11    5   31 1
  12    6    7 am
  13    6    8 2
  14    7   10 1
  15    7   32 1
  16    9   10 ar
  17    9   21 ar
  18    9   33 1
  19   10   18 ar
  20   11   12 ar
  21   11   16 ar
  22   12   13 ar
  23   12   34 1
  24   13   14 ar
  25   13   35 1
  26   14   15 ar
  27   14   22 1
  28   15   16 ar
  29   15   17 1
  30   16   36 1
  31   17   24 1
  32   18   19 ar
  33   18   37 1
  34   19   20 ar
  35   19   38 1
  36   20   21 ar
  37   20   25 1
  38   21   27 1
  39   22   23 1
  40   23   39 1
  41   23   40 1
  42   23   41 1
  43   24   42 1
  44   24   43 1
  45   24   44 1
  46   25   26 1
  47   26   27 1
  48   26   45 1
  49   26   46 1

#	End of record

