#	Name: ASD01180012
#	Creating user name:	WinNT
#	Creation time:	15. 06. 2019 19:06

#	Modifying user name:	WinNT
#	Modification time:	15. 06. 2019 19:06

#	Program:	/corina/corina34_cracker 3.40 0067  02.08.2006

@<TRIPOS>MOLECULE
ASD01180012
  25   26    0    0    0
SMALL
NO_CHARGES


@<TRIPOS>ATOM
   1 N1             0.0046     1.3493     0.0189 N.ar    
   2 C2            -0.0157     0.0529    -0.1918 C.ar    
   3 C3             1.1711    -0.6817    -0.2334 C.ar    
   4 N4             2.3320    -0.0914    -0.0625 N.ar    
   5 C5             2.3795     1.2278     0.1532 C.ar    
   6 C6             3.6055     1.8886     0.3402 C.ar    
   7 C7             3.6217     3.2328     0.5583 C.ar    
   8 C8             2.4351     3.9673     0.5997 C.ar    
   9 C9             1.2294     3.3597     0.4227 C.ar    
  10 C10            1.1741     1.9739     0.1953 C.ar    
  11 C11            1.1195    -2.1681    -0.4763 C.3     
  12 F12            0.2426    -2.4378    -1.5325 F       
  13 F13            2.3985    -2.6321    -0.8021 F       
  14 F14            0.6695    -2.8143     0.6800 F       
  15 S15           -1.5574    -0.7681    -0.4240 S.o2    
  16 O16           -1.3444    -2.0697     0.1048 O.2     
  17 O17           -2.5129     0.1104     0.1544 O.2     
  18 C18           -1.7658    -0.8389    -2.2246 C.3     
  19 Cl19           2.4977     5.6792     0.8813 Cl      
  20 Cl20           5.1390     4.0442     0.7887 Cl      
  21 H21            4.5311     1.3328     0.3114 H       
  22 H22            0.3193     3.9402     0.4575 H       
  23 H23           -0.9382    -1.3952    -2.6646 H       
  24 H24           -2.7057    -1.3372    -2.4623 H       
  25 H25           -1.7789     0.1733    -2.6289 H       
@<TRIPOS>BOND
   1    1    2 ar
   2    1   10 ar
   3    2    3 ar
   4    2   15 1
   5    3    4 ar
   6    3   11 1
   7    4    5 ar
   8    5    6 ar
   9    5   10 ar
  10    6    7 ar
  11    6   21 1
  12    7    8 ar
  13    7   20 1
  14    8    9 ar
  15    8   19 1
  16    9   10 ar
  17    9   22 1
  18   11   12 1
  19   11   13 1
  20   11   14 1
  21   15   16 2
  22   15   17 2
  23   15   18 1
  24   18   23 1
  25   18   24 1
  26   18   25 1

#	End of record

