#	Name: ASD02030046
#	Creating user name:	WinNT
#	Creation time:	15. 06. 2019 20:14

#	Modifying user name:	WinNT
#	Modification time:	15. 06. 2019 20:14

#	Program:	/corina/corina34_cracker 3.40 0067  02.08.2006

@<TRIPOS>MOLECULE
ASD02030046
  52   55    0    0    0
SMALL
NO_CHARGES


@<TRIPOS>ATOM
   1 N1            -0.2703     0.9418     0.2604 N.2     
   2 C2             0.0197    -0.3375     0.2065 C.2     
   3 N3             1.3781    -0.4356     0.0121 N.pl3   
   4 C4             1.8366     0.8503    -0.0407 C.2     
   5 N5             0.7984     1.6405     0.1150 N.2     
   6 S6             3.5087     1.3551    -0.2730 S.3     
   7 C7             3.3036     3.1528    -0.2267 C.3     
   8 C8             2.8299     3.5764     1.1651 C.3     
   9 C9             4.6215     3.8168    -0.5324 C.2     
  10 N10            4.6498     5.0980    -0.9496 N.am    
  11 O11            5.6567     3.1981    -0.4030 O.2     
  12 C12            5.8728     5.7482    -1.1248 C.ar    
  13 C13            5.9765     6.8436    -2.0082 C.ar    
  14 C14            7.2276     7.4885    -2.1699 C.ar    
  15 C15            8.3420     7.0268    -1.4493 C.ar    
  16 C16            8.2134     5.9672    -0.6038 C.ar    
  17 C17            6.9884     5.3296    -0.4322 C.ar    
  18 C18            4.8644     7.3055    -2.7296 C.ar    
  19 C19            5.0013     8.3650    -3.5736 C.ar    
  20 C20            6.2314     8.9999    -3.7337 C.ar    
  21 C21            7.3307     8.5798    -3.0500 C.ar    
  22 C22           -0.9334    -1.4604     0.3313 C.ar    
  23 C23           -2.2028    -1.2444     0.8709 C.ar    
  24 C24           -0.5688    -2.7386    -0.0954 C.ar    
  25 C25           -1.4607    -3.7831     0.0222 C.ar    
  26 C26           -2.7204    -3.5652     0.5643 C.ar    
  27 C27           -3.0889    -2.2942     0.9852 C.ar    
  28 O28           -3.5968    -4.5972     0.6782 O.3     
  29 C29            2.1682    -1.6630    -0.1121 C.3     
  30 C30            2.2356    -2.0796    -1.5827 C.3     
  31 H31            2.5645     3.4535    -0.9693 H       
  32 H32            3.5690     3.2758     1.9076 H       
  33 H33            2.7064     4.6590     1.1929 H       
  34 H34            1.8767     3.0962     1.3861 H       
  35 H35            3.8205     5.5684    -1.1280 H       
  36 H36            9.2999     7.5117    -1.5662 H       
  37 H37            9.0752     5.6188    -0.0539 H       
  38 H38            6.9131     4.4912     0.2445 H       
  39 H39            3.9051     6.8226    -2.6159 H       
  40 H40            4.1440     8.7184    -4.1274 H       
  41 H41            6.3135     9.8381    -4.4097 H       
  42 H42            8.2777     9.0814    -3.1841 H       
  43 H43           -2.4900    -0.2562     1.1988 H       
  44 H44            0.4107    -2.9089    -0.5175 H       
  45 H45           -1.1795    -4.7722    -0.3080 H       
  46 H46           -4.0695    -2.1287     1.4063 H       
  47 H47           -3.5349    -5.0751     1.5166 H       
  48 H48            3.1766    -1.4854     0.2618 H       
  49 H49            1.6998    -2.4571     0.4694 H       
  50 H50            2.8235    -2.9928    -1.6751 H       
  51 H51            1.2273    -2.2573    -1.9566 H       
  52 H52            2.7041    -1.2856    -2.1642 H       
@<TRIPOS>BOND
   1    1    2 2
   2    1    5 1
   3    2    3 1
   4    2   22 1
   5    3    4 1
   6    3   29 1
   7    4    5 2
   8    4    6 1
   9    6    7 1
  10    7    8 1
  11    7    9 1
  12    7   31 1
  13    8   32 1
  14    8   33 1
  15    8   34 1
  16    9   10 am
  17    9   11 2
  18   10   12 1
  19   10   35 1
  20   12   13 ar
  21   12   17 ar
  22   13   14 ar
  23   13   18 ar
  24   14   15 ar
  25   14   21 ar
  26   15   16 ar
  27   15   36 1
  28   16   17 ar
  29   16   37 1
  30   17   38 1
  31   18   19 ar
  32   18   39 1
  33   19   20 ar
  34   19   40 1
  35   20   21 ar
  36   20   41 1
  37   21   42 1
  38   22   23 ar
  39   22   24 ar
  40   23   27 ar
  41   23   43 1
  42   24   25 ar
  43   24   44 1
  44   25   26 ar
  45   25   45 1
  46   26   27 ar
  47   26   28 1
  48   27   46 1
  49   28   47 1
  50   29   30 1
  51   29   48 1
  52   29   49 1
  53   30   50 1
  54   30   51 1
  55   30   52 1

#	End of record

