#	Name: ASD01903199
#	Creating user name:	WinNT
#	Creation time:	15. 06. 2019 19:54

#	Modifying user name:	WinNT
#	Modification time:	15. 06. 2019 19:54

#	Program:	/corina/corina34_cracker 3.40 0067  02.08.2006

@<TRIPOS>MOLECULE
ASD01903199
  25   27    0    0    0
SMALL
NO_CHARGES


@<TRIPOS>ATOM
   1 F1             2.5107     2.8936    -0.0613 F       
   2 S2            -0.0241     1.7573    -0.0292 S.3     
   3 C3             0.0014    -0.0033    -0.0094 C.2     
   4 N4             1.2300    -0.4176    -0.0141 N.2     
   5 C5             2.1805     0.5164    -0.0318 C.2     
   6 C6             1.7375     1.7859    -0.0429 C.2     
   7 N7            -1.1203    -0.8210     0.0088 N.pl3   
   8 C8            -2.3879    -0.2605     0.1288 C.ar    
   9 N9            -2.5221     1.0439     0.3309 N.ar    
  10 C10           -3.7287     1.5730     0.4441 C.ar    
  11 C11           -4.8492     0.7696     0.3522 C.ar    
  12 N12           -4.7202    -0.5314     0.1507 N.ar    
  13 C13           -3.5202    -1.0664     0.0315 C.ar    
  14 C14            3.6270     0.1789    -0.0385 C.2     
  15 C15            4.6437     0.8892    -0.7052 C.2     
  16 N16            5.7803     0.2865    -0.4736 N.2     
  17 N17            5.5364    -0.8239     0.3436 N.pl3   
  18 C18            4.2120    -0.8717     0.6047 C.2     
  19 H19           -1.0203    -1.7832    -0.0622 H       
  20 H20           -3.8385     2.6346     0.6089 H       
  21 H21           -5.8331     1.2051     0.4454 H       
  22 H22           -3.4155    -2.1286    -0.1330 H       
  23 H23            4.5080     1.7776    -1.3041 H       
  24 H24            6.2034    -1.4487     0.6687 H       
  25 H25            3.7070    -1.6115     1.2081 H       
@<TRIPOS>BOND
   1    1    6 1
   2    2    3 1
   3    2    6 1
   4    3    4 2
   5    3    7 1
   6    4    5 1
   7    5    6 2
   8    5   14 1
   9    7    8 1
  10    7   19 1
  11    8    9 ar
  12    8   13 ar
  13    9   10 ar
  14   10   11 ar
  15   10   20 1
  16   11   12 ar
  17   11   21 1
  18   12   13 ar
  19   13   22 1
  20   14   15 1
  21   14   18 2
  22   15   16 2
  23   15   23 1
  24   16   17 1
  25   17   18 1
  26   17   24 1
  27   18   25 1

#	End of record

