#	Name: ASD05503008
#	Creating user name:	WinNT
#	Creation time:	15. 06. 2019 21:01

#	Modifying user name:	WinNT
#	Modification time:	15. 06. 2019 21:01

#	Program:	/corina/corina34_cracker 3.40 0067  02.08.2006

@<TRIPOS>MOLECULE
ASD05503008
  42   43    0    0    0
SMALL
NO_CHARGES


@<TRIPOS>ATOM
   1 C1             0.4503     2.4415    -1.0889 C.ar    
   2 C2             0.4362     1.0681    -0.8812 C.ar    
   3 C3             1.6248     0.3907    -0.6494 C.ar    
   4 C4             2.8241     1.0880    -0.6261 C.ar    
   5 C5             2.8313     2.4619    -0.8346 C.ar    
   6 C6             1.6463     3.1332    -1.0650 C.ar    
   7 N7            -0.7754     0.3686    -0.9051 N.am    
   8 C8            -0.8145    -0.8958    -1.3701 C.2     
   9 C9            -2.0898    -1.6934    -1.2782 C.3     
  10 O10            0.1768    -1.3918    -1.8625 O.2     
  11 C11           -1.8649    -3.0852    -1.8725 C.3     
  12 C12           -3.1597    -3.8950    -1.7792 C.3     
  13 N13            4.0242     0.4091    -0.3924 N.am    
  14 C14            5.0333     1.0269     0.2529 C.2     
  15 C15            6.3362     0.3467     0.4103 C.ar    
  16 O16            4.8720     2.1435     0.7056 O.2     
  17 C17            6.5774    -0.8647    -0.2396 C.ar    
  18 C18            7.7960    -1.4942    -0.0889 C.ar    
  19 C19            8.7774    -0.9272     0.7043 C.ar    
  20 C20            8.5445     0.2734     1.3518 C.ar    
  21 C21            7.3329     0.9160     1.2050 C.ar    
  22 C22            7.0812     2.2237     1.9104 C.3     
  23 H23           -0.4741     2.9685    -1.2738 H       
  24 H24            1.6164    -0.6771    -0.4873 H       
  25 H25            3.7644     3.0054    -0.8162 H       
  26 H26            1.6546     4.2009    -1.2272 H       
  27 H27           -1.5872     0.7936    -0.5870 H       
  28 H28           -2.3847    -1.7880    -0.2331 H       
  29 H29           -2.8776    -1.1842    -1.8333 H       
  30 H30           -1.5700    -2.9906    -2.9176 H       
  31 H31           -1.0771    -3.5944    -1.3174 H       
  32 H32           -2.9994    -4.8865    -2.2027 H       
  33 H33           -3.4545    -3.9895    -0.7341 H       
  34 H34           -3.9474    -3.3858    -2.3344 H       
  35 H35            4.1303    -0.5065    -0.6948 H       
  36 H36            5.8119    -1.3085    -0.8588 H       
  37 H37            7.9838    -2.4317    -0.5909 H       
  38 H38            9.7295    -1.4240     0.8190 H       
  39 H39            9.3148     0.7105     1.9699 H       
  40 H40            7.2616     3.0488     1.2214 H       
  41 H41            6.0477     2.2576     2.2551 H       
  42 H42            7.7522     2.3106     2.7650 H       
@<TRIPOS>BOND
   1    1    2 ar
   2    1    6 ar
   3    1   23 1
   4    2    3 ar
   5    2    7 1
   6    3    4 ar
   7    3   24 1
   8    4    5 ar
   9    4   13 1
  10    5    6 ar
  11    5   25 1
  12    6   26 1
  13    7    8 am
  14    7   27 1
  15    8    9 1
  16    8   10 2
  17    9   11 1
  18    9   28 1
  19    9   29 1
  20   11   12 1
  21   11   30 1
  22   11   31 1
  23   12   32 1
  24   12   33 1
  25   12   34 1
  26   13   14 am
  27   13   35 1
  28   14   15 1
  29   14   16 2
  30   15   17 ar
  31   15   21 ar
  32   17   18 ar
  33   17   36 1
  34   18   19 ar
  35   18   37 1
  36   19   20 ar
  37   19   38 1
  38   20   21 ar
  39   20   39 1
  40   21   22 1
  41   22   40 1
  42   22   41 1
  43   22   42 1

#	End of record

