#	Name: ASD03730003
#	Creating user name:	WinNT
#	Creation time:	15. 06. 2019 20:43

#	Modifying user name:	WinNT
#	Modification time:	15. 06. 2019 20:43

#	Program:	/corina/corina34_cracker 3.40 0067  02.08.2006

@<TRIPOS>MOLECULE
ASD03730003
  45   50    0    0    0
SMALL
NO_CHARGES


@<TRIPOS>ATOM
   1 C1            -0.0167     1.3784     0.0096 C.ar    
   2 C2             0.0021    -0.0041     0.0020 C.ar    
   3 C3             1.2025    -0.6840    -0.0132 C.ar    
   4 C4             2.4053     0.0173    -0.0201 C.ar    
   5 C5             2.3747     1.4099    -0.0119 C.ar    
   6 C6             1.1742     2.0835     0.0020 C.ar    
   7 N7             3.7263    -0.4369    -0.0352 N.am    
   8 C8             4.6124     0.5788    -0.0349 C.2     
   9 C9             3.8091     1.8475    -0.0203 C.3     
  10 C10            4.1482     2.7242     1.1553 C.ar    
  11 C11            4.9092     3.7775     0.6572 C.ar    
  12 O12            5.1003     3.6570    -0.6877 O.3     
  13 C13            4.1304     2.7391    -1.2277 C.3     
  14 C14            3.8482     2.6472     2.4993 C.ar    
  15 C15            4.2976     3.6258     3.3700 C.ar    
  16 C16            5.0556     4.6879     2.8824 C.ar    
  17 C17            5.3577     4.7604     1.5345 C.ar    
  18 O18            4.1402     3.7828     4.7173 O.3     
  19 C19            5.1501     4.7294     5.1138 C.3     
  20 O20            5.3725     5.5108     3.9252 O.3     
  21 C21            4.1044    -1.8522    -0.0491 C.3     
  22 C22            4.2215    -2.3268    -1.4746 C.2     
  23 C23            5.3368    -2.2929    -2.2259 C.2     
  24 C24            4.9972    -2.8326    -3.4878 C.2     
  25 C25            3.6947    -3.1640    -3.4321 C.2     
  26 O26            3.2316    -2.8608    -2.2085 O.3     
  27 O27            5.8217     0.4861    -0.0442 O.2     
  28 C28            2.8927    -3.7768    -4.5511 C.3     
  29 F29            2.9694    -5.1714    -4.4704 F       
  30 F30            1.5568    -3.3761    -4.4412 F       
  31 F31            3.4073    -3.3520    -5.7807 F       
  32 H32           -0.9585     1.9069     0.0169 H       
  33 H33           -0.9272    -0.5543     0.0084 H       
  34 H34            1.2093    -1.7639    -0.0195 H       
  35 H35            1.1617     3.1634     0.0070 H       
  36 H36            4.5622     2.1523    -2.0384 H       
  37 H37            3.2402     3.2704    -1.5644 H       
  38 H38            3.2609     1.8218     2.8736 H       
  39 H39            5.9456     5.5855     1.1602 H       
  40 H40            4.7861     5.3606     5.9245 H       
  41 H41            6.0636     4.2135     5.4094 H       
  42 H42            5.0625    -1.9773     0.4554 H       
  43 H43            3.3429    -2.4368     0.4671 H       
  44 H44            6.3056    -1.9237    -1.9234 H       
  45 H45            5.6569    -2.9549    -4.3341 H       
@<TRIPOS>BOND
   1    1    2 ar
   2    1    6 ar
   3    1   32 1
   4    2    3 ar
   5    2   33 1
   6    3    4 ar
   7    3   34 1
   8    4    5 ar
   9    4    7 1
  10    5    6 ar
  11    5    9 1
  12    6   35 1
  13    7    8 am
  14    7   21 1
  15    8    9 1
  16    8   27 2
  17    9   10 1
  18    9   13 1
  19   10   11 ar
  20   10   14 ar
  21   11   12 1
  22   11   17 ar
  23   12   13 1
  24   13   36 1
  25   13   37 1
  26   14   15 ar
  27   14   38 1
  28   15   16 ar
  29   15   18 1
  30   16   17 ar
  31   16   20 1
  32   17   39 1
  33   18   19 1
  34   19   20 1
  35   19   40 1
  36   19   41 1
  37   21   22 1
  38   21   42 1
  39   21   43 1
  40   22   23 2
  41   22   26 1
  42   23   24 1
  43   23   44 1
  44   24   25 2
  45   24   45 1
  46   25   26 1
  47   25   28 1
  48   28   29 1
  49   28   30 1
  50   28   31 1

#	End of record

