#	Name: ASD01510080
#	Creating user name:	WinNT
#	Creation time:	15. 06. 2019 19:21

#	Modifying user name:	WinNT
#	Modification time:	15. 06. 2019 19:21

#	Program:	/corina/corina34_cracker 3.40 0067  02.08.2006

@<TRIPOS>MOLECULE
ASD01510080
  53   55    0    0    0
SMALL
NO_CHARGES


@<TRIPOS>ATOM
   1 C1            -0.0246     1.4070    -0.0120 C.3     
   2 O2            -0.0012    -0.0218    -0.0160 O.3     
   3 C3             0.6056    -0.6247    -1.0685 C.ar    
   4 N4             1.1470     0.1016    -2.0406 N.ar    
   5 C5             1.7416    -0.4791    -3.0715 C.ar    
   6 N6             1.8225    -1.7965    -3.1794 N.ar    
   7 C7             1.3049    -2.5895    -2.2472 C.ar    
   8 C8             0.6752    -2.0158    -1.1427 C.ar    
   9 S9            -0.0270    -3.0236     0.1206 S.3     
  10 C10            1.3620    -3.1822     1.1929 C.ar    
  11 N11            2.5002    -2.5865     0.8673 N.ar    
  12 C12            3.5691    -2.6845     1.6534 C.ar    
  13 N13            4.7559    -2.0582     1.3063 N.pl3   
  14 C14            3.4795    -3.4244     2.8300 C.ar    
  15 C15            2.2684    -4.0350     3.1379 C.ar    
  16 N16            1.2400    -3.8897     2.3070 N.ar    
  17 N17            2.1329    -4.7838     4.3024 N.am    
  18 C18            0.9297    -5.2851     4.6451 C.2     
  19 O19           -0.0521    -5.0063     3.9902 O.2     
  20 C20            0.8044    -6.1920     5.8421 C.3     
  21 O21            1.3918    -3.9378    -2.3657 O.3     
  22 C22            2.0568    -4.4457    -3.5241 C.3     
  23 N23            2.2943     0.3138    -4.0653 N.3     
  24 C24            2.9049    -0.5102    -5.1178 C.3     
  25 C25            3.4317     0.3977    -6.2316 C.3     
  26 N26            4.4098     1.3400    -5.6705 N.3     
  27 C27            3.7992     2.1640    -4.6180 C.3     
  28 C28            3.2725     1.2561    -3.5042 C.3     
  29 C29            4.9955     2.1802    -6.7236 C.3     
  30 H30            0.9969     1.7872    -0.0183 H       
  31 H31           -0.5507     1.7642    -0.8973 H       
  32 H32           -0.5380     1.7595     0.8826 H       
  33 H33            4.8111    -1.5442     0.4856 H       
  34 H34            5.5313    -2.1338     1.8842 H       
  35 H35            4.3306    -3.5220     3.4877 H       
  36 H36            2.9044    -4.9452     4.8678 H       
  37 H37            1.1329    -5.6615     6.7359 H       
  38 H38           -0.2359    -6.4948     5.9612 H       
  39 H39            1.4255    -7.0755     5.6952 H       
  40 H40            2.0561    -5.5353    -3.4949 H       
  41 H41            1.5369    -4.1059    -4.4198 H       
  42 H42            3.0847    -4.0833    -3.5411 H       
  43 H43            3.7297    -1.0853    -4.6968 H       
  44 H44            2.1578    -1.1908    -5.5262 H       
  45 H45            3.9108    -0.2095    -6.9997 H       
  46 H46            2.6027     0.9527    -6.6709 H       
  47 H47            4.5463     2.8446    -4.2096 H       
  48 H48            2.9744     2.7390    -5.0390 H       
  49 H49            2.7933     1.8632    -2.7361 H       
  50 H50            4.1014     0.7011    -3.0649 H       
  51 H51            4.2062     2.7479    -7.2164 H       
  52 H52            5.7158     2.8682    -6.2809 H       
  53 H53            5.4990     1.5479    -7.4549 H       
@<TRIPOS>BOND
   1    1    2 1
   2    1   30 1
   3    1   31 1
   4    1   32 1
   5    2    3 1
   6    3    4 ar
   7    3    8 ar
   8    4    5 ar
   9    5    6 ar
  10    5   23 1
  11    6    7 ar
  12    7    8 ar
  13    7   21 1
  14    8    9 1
  15    9   10 1
  16   10   11 ar
  17   10   16 ar
  18   11   12 ar
  19   12   13 1
  20   12   14 ar
  21   13   33 1
  22   13   34 1
  23   14   15 ar
  24   14   35 1
  25   15   16 ar
  26   15   17 1
  27   17   18 am
  28   17   36 1
  29   18   19 2
  30   18   20 1
  31   20   37 1
  32   20   38 1
  33   20   39 1
  34   21   22 1
  35   22   40 1
  36   22   41 1
  37   22   42 1
  38   23   24 1
  39   23   28 1
  40   24   25 1
  41   24   43 1
  42   24   44 1
  43   25   26 1
  44   25   45 1
  45   25   46 1
  46   26   27 1
  47   26   29 1
  48   27   28 1
  49   27   47 1
  50   27   48 1
  51   28   49 1
  52   28   50 1
  53   29   51 1
  54   29   52 1
  55   29   53 1

#	End of record

