#	Name: ASD01190096
#	Creating user name:	WinNT
#	Creation time:	15. 06. 2019 19:07

#	Modifying user name:	WinNT
#	Modification time:	15. 06. 2019 19:07

#	Program:	/corina/corina34_cracker 3.40 0067  02.08.2006

@<TRIPOS>MOLECULE
ASD01190096
  51   54    0    0    0
SMALL
NO_CHARGES


@<TRIPOS>ATOM
   1 C1            -0.0187     1.5258     0.0104 C.3     
   2 C2             0.4496     0.0740     0.1287 C.3     
   3 N3             4.5211     4.8298    -0.2777 N.pl3   
   4 N4             5.0402     4.3775    -1.4954 N.2     
   5 C5             4.2770     3.4434    -1.9880 C.2     
   6 C6             3.1686     3.2370    -1.0612 C.ar    
   7 C7             2.0566     2.3877    -1.0486 C.ar    
   8 C8             1.1790     2.4403    -0.0046 C.ar    
   9 C9             1.3792     3.3294     1.0443 C.ar    
  10 C10            2.4571     4.1688     1.0541 C.ar    
  11 C11            3.3695     4.1374     0.0030 C.ar    
  12 C12            5.0886     5.8249     0.5286 C.ar    
  13 C13            6.4693     5.9474     0.6138 C.ar    
  14 C14            7.0267     6.9291     1.4093 C.ar    
  15 C15            6.2098     7.7910     2.1217 C.ar    
  16 C16            4.8327     7.6706     2.0381 C.ar    
  17 C17            4.2713     6.6939     1.2393 C.ar    
  18 F18            6.7571     8.7504     2.8997 F       
  19 F19            1.1743    -0.0871     1.3145 F       
  20 F20           -0.6622    -0.7750     0.1427 F       
  21 F21            1.2650    -0.2434    -0.9629 F       
  22 N22           -2.3721     2.2373    -2.7035 N.pl3   
  23 C23           -2.0115     2.2772    -1.3893 C.2     
  24 C24           -0.7993     1.6993    -1.2669 C.2     
  25 C25           -0.3967     1.2875    -2.5527 C.2     
  26 C26           -1.3782     1.6295    -3.4119 C.2     
  27 C27           -1.3766     1.3829    -4.8985 C.3     
  28 O28           -0.1649     0.7231    -5.2707 O.3     
  29 C29           -3.6233     2.7562    -3.2615 C.3     
  30 C30           -4.6310     1.6399    -3.3587 C.2     
  31 C31           -5.8053     1.7663    -2.7919 C.2     
  32 O32           -0.8516     1.8500     1.1254 O.3     
  33 H33            4.4361     2.9160    -2.9170 H       
  34 H34            1.8936     1.6944    -1.8605 H       
  35 H35            0.6738     3.3576     1.8617 H       
  36 H36            2.6009     4.8554     1.8752 H       
  37 H37            7.1067     5.2752     0.0586 H       
  38 H38            8.1004     7.0244     1.4761 H       
  39 H39            4.1974     8.3436     2.5948 H       
  40 H40            3.1972     6.6034     1.1706 H       
  41 H41           -2.5958     2.6992    -0.5849 H       
  42 H42            0.5281     0.7895    -2.8041 H       
  43 H43           -2.2279     0.7559    -5.1637 H       
  44 H44           -1.4485     2.3347    -5.4248 H       
  45 H45           -0.0953     0.5324    -6.2161 H       
  46 H46           -4.0123     3.5413    -2.6131 H       
  47 H47           -3.4365     3.1645    -4.2547 H       
  48 H48           -4.3851     0.7357    -3.8956 H       
  49 H49           -6.0512     2.6705    -2.2549 H       
  50 H50           -6.5275     0.9663    -2.8615 H       
  51 H51           -1.1855     2.7574     1.1162 H       
@<TRIPOS>BOND
   1    1    2 1
   2    1    8 1
   3    1   24 1
   4    1   32 1
   5    2   19 1
   6    2   20 1
   7    2   21 1
   8    3    4 1
   9    3   11 1
  10    3   12 1
  11    4    5 2
  12    5    6 1
  13    5   33 1
  14    6    7 ar
  15    6   11 ar
  16    7    8 ar
  17    7   34 1
  18    8    9 ar
  19    9   10 ar
  20    9   35 1
  21   10   11 ar
  22   10   36 1
  23   12   13 ar
  24   12   17 ar
  25   13   14 ar
  26   13   37 1
  27   14   15 ar
  28   14   38 1
  29   15   16 ar
  30   15   18 1
  31   16   17 ar
  32   16   39 1
  33   17   40 1
  34   22   23 1
  35   22   26 1
  36   22   29 1
  37   23   24 2
  38   23   41 1
  39   24   25 1
  40   25   26 2
  41   25   42 1
  42   26   27 1
  43   27   28 1
  44   27   43 1
  45   27   44 1
  46   28   45 1
  47   29   30 1
  48   29   46 1
  49   29   47 1
  50   30   31 2
  51   30   48 1
  52   31   49 1
  53   31   50 1
  54   32   51 1

#	End of record

