#	Name: ASD01816421
#	Creating user name:	WinNT
#	Creation time:	15. 06. 2019 19:35

#	Modifying user name:	WinNT
#	Modification time:	15. 06. 2019 19:35

#	Program:	/corina/corina34_cracker 3.40 0067  02.08.2006

@<TRIPOS>MOLECULE
ASD01816421
  62   68    0    0    0
SMALL
NO_CHARGES


@<TRIPOS>ATOM
   1 C1            -0.0167     1.3813     0.0096 C.ar    
   2 C2             0.0021    -0.0041     0.0020 C.ar    
   3 C3             1.1984    -0.6909    -0.0131 C.ar    
   4 C4             2.4015     0.0059    -0.0209 C.ar    
   5 C5             2.3790     1.4106    -0.0132 C.ar    
   6 C6             1.1663     2.0916     0.0022 C.ar    
   7 N7             3.6053    -0.6772    -0.0356 N.pl3   
   8 C8             4.7970    -0.0586    -0.0433 C.2     
   9 C9             4.9000     1.3102    -0.0373 C.2     
  10 C10            3.6670     2.1301    -0.0217 C.2     
  11 C11            5.9971     2.2729    -0.0429 C.2     
  12 N12            5.4246     3.4960    -0.0318 N.am    
  13 N13            4.0323     3.3799    -0.0192 N.2     
  14 O14            7.1915     2.0228    -0.0547 O.2     
  15 C15            3.5779    -2.1420    -0.0427 C.3     
  16 C16            3.5552    -2.6371    -1.4659 C.ar    
  17 C17            4.7429    -2.8861    -2.1288 C.ar    
  18 C18            4.7253    -3.3395    -3.4333 C.ar    
  19 C19            3.5135    -3.5457    -4.0788 C.ar    
  20 C20            2.3227    -3.2951    -3.4104 C.ar    
  21 C21            2.3466    -2.8468    -2.1042 C.ar    
  22 N22            3.4923    -4.0054    -5.4030 N.pl3   
  23 C23            2.3873    -4.2463    -6.1443 C.2     
  24 C24            2.7937    -4.6753    -7.3616 C.2     
  25 C25            4.1927    -4.6977    -7.3656 C.2     
  26 N26            4.6123    -4.2907    -6.1946 N.2     
  27 C27            6.1271     4.7092    -0.0316 C.ar    
  28 C28            5.4403     5.9223    -0.0197 C.ar    
  29 C29            6.1738     7.0944    -0.0200 C.ar    
  30 C30            7.5629     7.0250    -0.0321 C.ar    
  31 N31            8.1820     5.8548    -0.0437 N.ar    
  32 C32            7.5140     4.7172    -0.0376 C.ar    
  33 N33            8.3106     8.1989    -0.0326 N.3     
  34 C34            9.7554     7.9052    -0.0463 C.3     
  35 C35           10.3540     8.6124    -1.2804 C.3     
  36 C36            9.3210     9.7312    -1.5773 C.3     
  37 C37            7.9883     9.0319    -1.2107 C.3     
  38 H38           -0.9602     1.9068     0.0170 H       
  39 H39           -0.9289    -0.5515     0.0083 H       
  40 H40            1.2004    -1.7709    -0.0186 H       
  41 H41            1.1506     3.1715     0.0084 H       
  42 H42            5.6983    -0.6536    -0.0540 H       
  43 H43            4.4657    -2.5244     0.4609 H       
  44 H44            2.6861    -2.4912     0.4778 H       
  45 H45            5.6852    -2.7256    -1.6262 H       
  46 H46            5.6532    -3.5332    -3.9509 H       
  47 H47            1.3785    -3.4542    -3.9101 H       
  48 H48            1.4206    -2.6518    -1.5838 H       
  49 H49            1.3642    -4.1197    -5.8223 H       
  50 H50            2.1515    -4.9517    -8.1848 H       
  51 H51            4.8186    -4.9951    -8.1939 H       
  52 H52            4.3606     5.9460    -0.0107 H       
  53 H53            5.6743     8.0520    -0.0113 H       
  54 H54            8.0532     3.7815    -0.0471 H       
  55 H55           10.2203     8.2880     0.8622 H       
  56 H56            9.9144     6.8295    -0.1220 H       
  57 H57           11.3284     9.0402    -1.0445 H       
  58 H58           10.4279     7.9231    -2.1215 H       
  59 H59            9.4934    10.6003    -0.9424 H       
  60 H60            9.3389    10.0096    -2.6310 H       
  61 H61            7.6484     8.4064    -2.0362 H       
  62 H62            7.2291     9.7715    -0.9563 H       
@<TRIPOS>BOND
   1    1    2 ar
   2    1    6 ar
   3    1   38 1
   4    2    3 ar
   5    2   39 1
   6    3    4 ar
   7    3   40 1
   8    4    5 ar
   9    4    7 1
  10    5    6 ar
  11    5   10 1
  12    6   41 1
  13    7    8 1
  14    7   15 1
  15    8    9 2
  16    8   42 1
  17    9   10 1
  18    9   11 1
  19   10   13 2
  20   11   12 am
  21   11   14 2
  22   12   13 1
  23   12   27 1
  24   15   16 1
  25   15   43 1
  26   15   44 1
  27   16   17 ar
  28   16   21 ar
  29   17   18 ar
  30   17   45 1
  31   18   19 ar
  32   18   46 1
  33   19   20 ar
  34   19   22 1
  35   20   21 ar
  36   20   47 1
  37   21   48 1
  38   22   23 1
  39   22   26 1
  40   23   24 2
  41   23   49 1
  42   24   25 1
  43   24   50 1
  44   25   26 2
  45   25   51 1
  46   27   28 ar
  47   27   32 ar
  48   28   29 ar
  49   28   52 1
  50   29   30 ar
  51   29   53 1
  52   30   31 ar
  53   30   33 1
  54   31   32 ar
  55   32   54 1
  56   33   34 1
  57   33   37 1
  58   34   35 1
  59   34   55 1
  60   34   56 1
  61   35   36 1
  62   35   57 1
  63   35   58 1
  64   36   37 1
  65   36   59 1
  66   36   60 1
  67   37   61 1
  68   37   62 1

#	End of record

