#	Name: ASD01911322
#	Creating user name:	WinNT
#	Creation time:	15. 06. 2019 19:57

#	Modifying user name:	WinNT
#	Modification time:	15. 06. 2019 19:57

#	Program:	/corina/corina34_cracker 3.40 0067  02.08.2006

@<TRIPOS>MOLECULE
ASD01911322
  35   37    0    0    0
SMALL
NO_CHARGES


@<TRIPOS>ATOM
   1 C1            -0.0065     1.3575    -0.0881 C.ar    
   2 C2             0.0157    -0.0258    -0.1160 C.ar    
   3 C3             1.2212    -0.7051    -0.1357 C.ar    
   4 C4             2.4104    -0.0067    -0.1277 C.ar    
   5 C5             2.3959     1.3905    -0.1001 C.ar    
   6 C6             1.1746     2.0696    -0.0803 C.ar    
   7 C7             3.6265     2.1228    -0.0912 C.1     
   8 C8             4.6354     2.7231    -0.0839 C.1     
   9 C9             5.8660     3.4554    -0.0750 C.ar    
  10 N10            5.8382     4.7850    -0.0487 N.ar    
  11 C11            6.9487     5.5034    -0.0400 C.ar    
  12 C12            8.1926     4.8700    -0.0546 C.ar    
  13 C13            8.2621     3.4830    -0.0836 C.ar    
  14 C14            7.0790     2.7641    -0.0884 C.ar    
  15 O15            6.8657     6.8587    -0.0225 O.3     
  16 C16            8.0077     7.5907     0.4273 C.3     
  17 C17            9.2504     7.0771    -0.3137 C.3     
  18 N18            9.3685     5.6351    -0.0359 N.am    
  19 C19           10.5640     5.0707     0.2264 C.2     
  20 C20           11.8247     5.8884     0.1115 C.3     
  21 O21           10.6252     3.9047     0.5549 O.2     
  22 H22           -0.9511     1.8810    -0.0770 H       
  23 H23           -0.9124    -0.5781    -0.1220 H       
  24 H24            1.2308    -1.7848    -0.1570 H       
  25 H25            3.3505    -0.5381    -0.1424 H       
  26 H26            1.1557     3.1492    -0.0593 H       
  27 H27            9.2163     2.9774    -0.0976 H       
  28 H28            7.0941     1.6844    -0.1108 H       
  29 H29            7.8685     8.6509     0.2154 H       
  30 H30            8.1358     7.4447     1.4998 H       
  31 H31            9.1356     7.2393    -1.3854 H       
  32 H32           10.1377     7.5973     0.0472 H       
  33 H33           11.9914     6.4316     1.0416 H       
  34 H34           12.6702     5.2275    -0.0799 H       
  35 H35           11.7243     6.5973    -0.7104 H       
@<TRIPOS>BOND
   1    1    2 ar
   2    1    6 ar
   3    1   22 1
   4    2    3 ar
   5    2   23 1
   6    3    4 ar
   7    3   24 1
   8    4    5 ar
   9    4   25 1
  10    5    6 ar
  11    5    7 1
  12    6   26 1
  13    7    8 3
  14    8    9 1
  15    9   10 ar
  16    9   14 ar
  17   10   11 ar
  18   11   12 ar
  19   11   15 1
  20   12   13 ar
  21   12   18 1
  22   13   14 ar
  23   13   27 1
  24   14   28 1
  25   15   16 1
  26   16   17 1
  27   16   29 1
  28   16   30 1
  29   17   18 1
  30   17   31 1
  31   17   32 1
  32   18   19 am
  33   19   20 1
  34   19   21 2
  35   20   33 1
  36   20   34 1
  37   20   35 1

#	End of record

