#	Name: ASD01900074
#	Creating user name:	WinNT
#	Creation time:	15. 06. 2019 19:51

#	Modifying user name:	WinNT
#	Modification time:	15. 06. 2019 19:51

#	Program:	/corina/corina34_cracker 3.40 0067  02.08.2006

@<TRIPOS>MOLECULE
ASD01900074
  38   40    0    0    0
SMALL
NO_CHARGES


@<TRIPOS>ATOM
   1 C1            -0.3950     1.5680    -1.1832 C.2     
   2 N2            -0.3752     0.2243    -1.0797 N.am    
   3 O3             0.6328     2.2030    -1.0497 O.2     
   4 C4             0.8349    -0.4432    -0.8171 C.2     
   5 C5             0.9964    -1.7852    -0.6888 C.2     
   6 N6             2.3112    -2.0178    -0.4402 N.am    
   7 N7             2.9699    -0.7819    -0.4163 N.2     
   8 C8             2.0905     0.1588    -0.6473 C.2     
   9 S9             3.0114    -3.5000    -0.2058 S.o2    
  10 O10            4.2820    -3.2552     0.3815 O.2     
  11 O11            2.0211    -4.3206     0.3984 O.2     
  12 C12            3.3233    -4.1872    -1.7980 C.ar    
  13 C13            2.6802    -5.3470    -2.1877 C.ar    
  14 C14            2.9237    -5.8867    -3.4366 C.ar    
  15 C15            3.8121    -5.2652    -4.2974 C.ar    
  16 C16            4.4558    -4.1032    -3.9060 C.ar    
  17 C17            4.2068    -3.5626    -2.6589 C.ar    
  18 F18            4.0512    -5.7920    -5.5183 F       
  19 C19           -1.6682     2.2705    -1.4657 C.ar    
  20 N20           -2.7863     1.5712    -1.6160 N.ar    
  21 C21           -3.9373     2.1561    -1.8672 C.ar    
  22 C22           -4.0248     3.5338    -1.9850 C.ar    
  23 C23           -2.8809     4.3026    -1.8353 C.ar    
  24 C24           -1.6831     3.6600    -1.5659 C.ar    
  25 C25            4.9071    -2.2982    -2.2326 C.3     
  26 H26           -1.1954    -0.2824    -1.1862 H       
  27 H27            0.2204    -2.5320    -0.7694 H       
  28 H28            2.2949     1.2183    -0.6918 H       
  29 H29            1.9875    -5.8319    -1.5158 H       
  30 H30            2.4214    -6.7931    -3.7407 H       
  31 H31            5.1493    -3.6176    -4.5766 H       
  32 H32           -4.8264     1.5541    -1.9837 H       
  33 H33           -4.9747     4.0041    -2.1919 H       
  34 H34           -2.9231     5.3783    -1.9229 H       
  35 H35           -0.7725     4.2277    -1.4432 H       
  36 H36            4.2598    -1.4422    -2.4238 H       
  37 H37            5.1354    -2.3505    -1.1681 H       
  38 H38            5.8326    -2.1872    -2.7977 H       
@<TRIPOS>BOND
   1    1    2 am
   2    1    3 2
   3    1   19 1
   4    2    4 1
   5    2   26 1
   6    4    5 2
   7    4    8 1
   8    5    6 1
   9    5   27 1
  10    6    7 1
  11    6    9 am
  12    7    8 2
  13    8   28 1
  14    9   10 2
  15    9   11 2
  16    9   12 1
  17   12   13 ar
  18   12   17 ar
  19   13   14 ar
  20   13   29 1
  21   14   15 ar
  22   14   30 1
  23   15   16 ar
  24   15   18 1
  25   16   17 ar
  26   16   31 1
  27   17   25 1
  28   19   20 ar
  29   19   24 ar
  30   20   21 ar
  31   21   22 ar
  32   21   32 1
  33   22   23 ar
  34   22   33 1
  35   23   24 ar
  36   23   34 1
  37   24   35 1
  38   25   36 1
  39   25   37 1
  40   25   38 1

#	End of record

