#	Name: ASD03092776
#	Creating user name:	WinNT
#	Creation time:	15. 06. 2019 20:33

#	Modifying user name:	WinNT
#	Modification time:	15. 06. 2019 20:33

#	Program:	/corina/corina34_cracker 3.40 0067  02.08.2006

@<TRIPOS>MOLECULE
ASD03092776
  53   56    0    0    0
SMALL
NO_CHARGES


@<TRIPOS>ATOM
   1 C1            -0.2716     1.2876     0.4313 C.3     
   2 C2            -0.1289    -0.2299     0.2983 C.3     
   3 C3             0.5292    -0.5593    -1.0167 C.2     
   4 O4             0.8525     0.3324    -1.7736 O.2     
   5 C5             0.7787    -1.9559    -1.3814 C.2     
   6 C6             0.4472    -3.1452    -0.5909 C.2     
   7 C7             0.8598    -4.2143    -1.3186 C.2     
   8 C8             0.7310    -5.6314    -0.9156 C.ar    
   9 C9             0.2250    -6.5694    -1.8144 C.ar    
  10 C10            0.1077    -7.8902    -1.4327 C.ar    
  11 C11            0.4906    -8.2815    -0.1637 C.ar    
  12 C12            0.9943    -7.3553     0.7368 C.ar    
  13 C13            1.4728    -7.5349     2.1619 C.3     
  14 C14            2.3036    -6.2714     2.4712 C.3     
  15 C15            1.6858    -5.2281     1.5161 C.3     
  16 C16            1.1219    -6.0330     0.3650 C.ar    
  17 N17            1.4170    -3.7635    -2.4915 N.pl3   
  18 C18            1.3695    -2.4187    -2.5442 C.2     
  19 C19            1.8769    -1.5627    -3.6759 C.3     
  20 C20            1.9521    -4.5857    -3.4918 C.ar    
  21 C21            3.1020    -5.3236    -3.2445 C.ar    
  22 C22            3.6271    -6.1332    -4.2326 C.ar    
  23 C23            3.0092    -6.2090    -5.4674 C.ar    
  24 C24            1.8638    -5.4753    -5.7167 C.ar    
  25 C25            1.3304    -4.6687    -4.7306 C.ar    
  26 S26            3.6828    -7.2420    -6.7257 S.o2    
  27 N27            2.9861    -8.7351    -6.5593 N.am    
  28 O28            3.2210    -6.7195    -7.9638 O.2     
  29 O29            5.0601    -7.4052    -6.4164 O.2     
  30 H30            0.7146     1.7500     0.3927 H       
  31 H31           -0.8835     1.6680    -0.3866 H       
  32 H32           -0.7477     1.5258     1.3825 H       
  33 H33            0.4830    -0.6104     1.1162 H       
  34 H34           -1.1152    -0.6924     0.3369 H       
  35 H35           -0.0300    -3.1665     0.3777 H       
  36 H36           -0.0745    -6.2633    -2.8059 H       
  37 H37           -0.2842    -8.6193    -2.1265 H       
  38 H38            0.3963    -9.3168     0.1290 H       
  39 H39            0.6226    -7.6041     2.8405 H       
  40 H40            2.0954    -8.4260     2.2423 H       
  41 H41            2.1763    -5.9687     3.5106 H       
  42 H42            3.3563    -6.4335     2.2397 H       
  43 H43            0.8931    -4.6758     2.0207 H       
  44 H44            2.4539    -4.5441     1.1552 H       
  45 H45            2.9221    -1.3089    -3.4992 H       
  46 H46            1.7897    -2.1112    -4.6137 H       
  47 H47            1.2858    -0.6487    -3.7333 H       
  48 H48            3.5855    -5.2642    -2.2806 H       
  49 H49            4.5215    -6.7073    -4.0409 H       
  50 H50            1.3834    -5.5366    -6.6820 H       
  51 H51            0.4331    -4.0997    -4.9243 H       
  52 H52            2.3363    -8.8915    -5.8563 H       
  53 H53            3.2279    -9.4533    -7.1648 H       
@<TRIPOS>BOND
   1    1    2 1
   2    1   30 1
   3    1   31 1
   4    1   32 1
   5    2    3 1
   6    2   33 1
   7    2   34 1
   8    3    4 2
   9    3    5 1
  10    5   18 2
  11    5    6 1
  12    6    7 2
  13    6   35 1
  14    7    8 1
  15    7   17 1
  16    8   16 ar
  17    8    9 ar
  18    9   10 ar
  19    9   36 1
  20   10   11 ar
  21   10   37 1
  22   11   12 ar
  23   11   38 1
  24   12   16 ar
  25   12   13 1
  26   13   14 1
  27   13   39 1
  28   13   40 1
  29   14   15 1
  30   14   41 1
  31   14   42 1
  32   15   16 1
  33   15   43 1
  34   15   44 1
  35   17   18 1
  36   17   20 1
  37   18   19 1
  38   19   45 1
  39   19   46 1
  40   19   47 1
  41   20   25 ar
  42   20   21 ar
  43   21   22 ar
  44   21   48 1
  45   22   23 ar
  46   22   49 1
  47   23   24 ar
  48   23   26 1
  49   24   25 ar
  50   24   50 1
  51   25   51 1
  52   26   27 am
  53   26   28 2
  54   26   29 2
  55   27   52 1
  56   27   53 1

#	End of record

