#	Name: ASD05250102
#	Creating user name:	WinNT
#	Creation time:	15. 06. 2019 20:58

#	Modifying user name:	WinNT
#	Modification time:	15. 06. 2019 20:58

#	Program:	/corina/corina34_cracker 3.40 0067  02.08.2006

@<TRIPOS>MOLECULE
ASD05250102
  40   42    0    0    0
SMALL
NO_CHARGES


@<TRIPOS>ATOM
   1 C1            -0.0187     1.5258     0.0104 C.3     
   2 C2             0.0021    -0.0041     0.0020 C.3     
   3 S3             0.7182    -0.5905    -1.5581 S.3     
   4 C4            -1.4266    -0.5342     0.1385 C.3     
   5 O5            -2.0310     0.0210     1.3084 O.3     
   6 C6            -1.3956    -2.0595     0.2555 C.3     
   7 C7            -2.8272    -2.5993     0.2666 C.3     
   8 O8            -3.4479    -2.3292    -0.9919 O.3     
   9 C9            -2.8007    -4.1099     0.5084 C.3     
  10 C10            3.1869     1.1283    -2.8227 C.2     
  11 N11            2.2727     2.1542    -2.5561 N.3     
  12 C12            2.1966     2.2479    -1.1354 C.2     
  13 C13            3.3946     2.7308    -0.6983 C.2     
  14 C14            4.2141     2.9315    -1.9744 C.3     
  15 N15            4.3916     1.5373    -2.4902 N.2     
  16 N16            3.3493     2.8256     0.6527 N.pl3   
  17 C17            1.3951     2.0474    -0.0003 C.2     
  18 C18            2.1214     2.4069     1.0808 C.2     
  19 O19            5.3793     3.7540    -1.8850 O.3     
  20 N20            2.8756    -0.1066    -3.3417 N.pl3   
  21 N21            3.0904     3.3570    -2.8994 N.3     
  22 H22           -0.5459     1.8868    -0.8726 H       
  23 H23           -0.5289     1.8773     0.9072 H       
  24 H24            0.6044    -0.3639     0.8362 H       
  25 H25           -0.1134    -0.0797    -2.4836 H       
  26 H26           -2.0055    -0.2489    -0.7398 H       
  27 H27           -1.5676    -0.1929     2.1297 H       
  28 H28           -0.8560    -2.4781    -0.5940 H       
  29 H29           -0.8933    -2.3428     1.1804 H       
  30 H30           -3.3924    -2.1138     1.0621 H       
  31 H31           -4.3597    -2.6445    -1.0565 H       
  32 H32           -2.2355    -4.5953    -0.2872 H       
  33 H33           -2.3273    -4.3159     1.4683 H       
  34 H34           -3.8206    -4.4945     0.5163 H       
  35 H35            4.0697     3.1387     1.2217 H       
  36 H36            1.7884     2.3693     2.1075 H       
  37 H37            5.8597     3.8474    -2.7190 H       
  38 H38            1.9548    -0.3250    -3.5550 H       
  39 H39            3.5767    -0.7593    -3.4946 H       
  40 H40            3.3862     3.3300    -3.8637 H       
@<TRIPOS>BOND
   1    1    2 1
   2    1   17 1
   3    1   22 1
   4    1   23 1
   5    2    3 1
   6    2    4 1
   7    2   24 1
   8    3   25 1
   9    4    5 1
  10    4    6 1
  11    4   26 1
  12    5   27 1
  13    6    7 1
  14    6   28 1
  15    6   29 1
  16    7    8 1
  17    7    9 1
  18    7   30 1
  19    8   31 1
  20    9   32 1
  21    9   33 1
  22    9   34 1
  23   10   11 1
  24   10   15 2
  25   10   20 1
  26   11   12 1
  27   11   21 1
  28   12   13 2
  29   12   17 1
  30   13   14 1
  31   13   16 1
  32   14   15 1
  33   14   19 1
  34   14   21 1
  35   16   18 1
  36   16   35 1
  37   17   18 2
  38   18   36 1
  39   19   37 1
  40   20   38 1
  41   20   39 1
  42   21   40 1

#	End of record

