#	Name: ASD06350016
#	Creating user name:	WinNT
#	Creation time:	15. 06. 2019 21:06

#	Modifying user name:	WinNT
#	Modification time:	15. 06. 2019 21:06

#	Program:	/corina/corina34_cracker 3.40 0067  02.08.2006

@<TRIPOS>MOLECULE
ASD06350016
  58   63    0    0    0
SMALL
NO_CHARGES


@<TRIPOS>ATOM
   1 F1             3.0219     1.3660    -1.0217 F       
   2 C2             2.2968     2.4879    -0.8197 C.ar    
   3 C3             2.8769     3.7301    -1.0141 C.ar    
   4 C4             2.1383     4.8792    -0.8084 C.ar    
   5 C5             0.8128     4.7891    -0.4067 C.ar    
   6 C6             0.2308     3.5407    -0.2121 C.ar    
   7 C7             0.9729     2.3935    -0.4240 C.ar    
   8 F8            -1.0591     3.4493     0.1789 F       
   9 N9             0.0623     5.9537    -0.1971 N.am    
  10 C10           -0.6363     6.4915    -1.2270 C.2     
  11 C11           -1.3751     7.6189    -1.0634 C.2     
  12 C12           -1.4273     8.2471     0.1806 C.2     
  13 C13           -0.7118     7.6993     1.2441 C.2     
  14 C14            0.0419     6.5178     1.0254 C.2     
  15 O15            0.6757     6.0190     1.9394 O.2     
  16 C16           -0.7414     8.3330     2.5708 C.2     
  17 O17           -1.3034     9.4014     2.7223 O.2     
  18 N18           -0.1459     7.7302     3.6189 N.am    
  19 C19           -0.0436     8.3982     4.8451 C.ar    
  20 C20           -0.0527     7.6771     6.0315 C.ar    
  21 C21            0.0477     8.3359     7.2416 C.ar    
  22 C22            0.1578     9.7176     7.2726 C.ar    
  23 C23            0.1671    10.4410     6.0861 C.ar    
  24 C24            0.0728     9.7820     4.8747 C.ar    
  25 F25            0.2739    11.7874     6.1164 F       
  26 O26            0.2562    10.3652     8.4646 O.3     
  27 C27           -0.8641    10.9318     8.9753 C.ar    
  28 N28           -2.0418    10.7489     8.3848 N.ar    
  29 C29           -3.1360    11.2959     8.8744 C.ar    
  30 N30           -3.1152    12.0421     9.9599 N.ar    
  31 C31           -1.9762    12.2724    10.6081 C.ar    
  32 C32           -0.7997    11.7077    10.1269 C.ar    
  33 O33           -1.9636    13.0405    11.7231 O.3     
  34 N34           -3.2361    13.5395    12.0931 N.pl3   
  35 N35           -4.3431    13.3211    11.4715 N.2     
  36 N36           -5.3355    13.9064    12.0446 N.2     
  37 C37           -4.8917    14.5709    13.1284 C.ar    
  38 C38           -3.5034    14.3328    13.1768 C.ar    
  39 C39           -2.7441    14.8924    14.1983 C.ar    
  40 C40           -3.3499    15.6681    15.1464 C.ar    
  41 C41           -4.7186    15.9050    15.1018 C.ar    
  42 C42           -5.4881    15.3647    14.1122 C.ar    
  43 H43            3.9082     3.8007    -1.3267 H       
  44 H44            2.5922     5.8475    -0.9597 H       
  45 H45            0.5224     1.4236    -0.2732 H       
  46 H46           -0.6042     6.0147    -2.1955 H       
  47 H47           -1.9231     8.0300    -1.8983 H       
  48 H48           -2.0127     9.1443     0.3177 H       
  49 H49            0.2118     6.8336     3.5237 H       
  50 H50           -0.1388     6.6008     6.0084 H       
  51 H51            0.0402     7.7743     8.1641 H       
  52 H52            0.0800    10.3434     3.9522 H       
  53 H53           -4.0768    11.1280     8.3713 H       
  54 H54            0.1412    11.8750    10.6302 H       
  55 H55           -1.6798    14.7144    14.2426 H       
  56 H56           -2.7585    16.1016    15.9393 H       
  57 H57           -5.1791    16.5206    15.8604 H       
  58 H58           -6.5509    15.5549    14.0859 H       
@<TRIPOS>BOND
   1    1    2 1
   2    2    3 ar
   3    2    7 ar
   4    3    4 ar
   5    3   43 1
   6    4    5 ar
   7    4   44 1
   8    5    6 ar
   9    5    9 1
  10    6    7 ar
  11    6    8 1
  12    7   45 1
  13    9   10 1
  14    9   14 am
  15   10   11 2
  16   10   46 1
  17   11   12 1
  18   11   47 1
  19   12   13 2
  20   12   48 1
  21   13   14 1
  22   13   16 1
  23   14   15 2
  24   16   17 2
  25   16   18 am
  26   18   19 1
  27   18   49 1
  28   19   20 ar
  29   19   24 ar
  30   20   21 ar
  31   20   50 1
  32   21   22 ar
  33   21   51 1
  34   22   23 ar
  35   22   26 1
  36   23   24 ar
  37   23   25 1
  38   24   52 1
  39   26   27 1
  40   27   28 ar
  41   27   32 ar
  42   28   29 ar
  43   29   30 ar
  44   29   53 1
  45   30   31 ar
  46   31   32 ar
  47   31   33 1
  48   32   54 1
  49   33   34 1
  50   34   35 1
  51   34   38 1
  52   35   36 2
  53   36   37 1
  54   37   38 ar
  55   37   42 ar
  56   38   39 ar
  57   39   40 ar
  58   39   55 1
  59   40   41 ar
  60   40   56 1
  61   41   42 ar
  62   41   57 1
  63   42   58 1

#	End of record

