#	Name: ASD01912334
#	Creating user name:	WinNT
#	Creation time:	15. 06. 2019 19:59

#	Modifying user name:	WinNT
#	Modification time:	15. 06. 2019 19:59

#	Program:	/corina/corina34_cracker 3.40 0067  02.08.2006

@<TRIPOS>MOLECULE
ASD01912334
  46   48    0    0    0
SMALL
NO_CHARGES


@<TRIPOS>ATOM
   1 C1             4.1760    -4.3268    -1.0916 C.ar    
   2 C2             2.9339    -3.7175    -1.0900 C.ar    
   3 C3             2.6205    -2.8212    -0.0647 C.ar    
   4 C4             3.5848    -2.5804     0.9195 C.ar    
   5 C5             4.7997    -3.2321     0.8410 C.ar    
   6 N6             5.0563    -4.0708    -0.1434 N.ar    
   7 C7             1.3034    -2.1444    -0.0215 C.2     
   8 O8             1.2445    -0.9367     0.0990 O.2     
   9 N9             0.1704    -2.8682    -0.1158 N.am    
  10 C10            0.2318    -4.3175    -0.3448 C.3     
  11 C11           -0.5037    -5.0295     0.7977 C.3     
  12 C12           -1.8562    -4.3753     0.9767 C.2     
  13 C13           -1.9106    -2.8746     1.1607 C.3     
  14 C14           -1.1397    -2.2176     0.0152 C.3     
  15 C15           -2.9721    -5.1031     0.9719 C.2     
  16 C16           -4.2432    -4.4660     1.1428 C.1     
  17 C17           -5.2852    -3.9437     1.2829 C.1     
  18 C18           -6.5562    -3.3065     1.4539 C.ar    
  19 C19           -7.7241    -4.0748     1.4481 C.ar    
  20 C20           -8.9432    -3.4440     1.6144 C.ar    
  21 C21           -8.9598    -2.0654     1.7814 C.ar    
  22 C22           -7.7670    -1.3656     1.7771 C.ar    
  23 N23           -6.6169    -1.9887     1.6224 N.ar    
  24 C24           -7.7828     0.1304     1.9582 C.3     
  25 C25            5.8469    -2.9811     1.8952 C.3     
  26 Cl26           4.5785    -5.4482    -2.3541 Cl      
  27 H27            2.2175    -3.9310    -1.8695 H       
  28 H28            3.3823    -1.8945     1.7287 H       
  29 H29           -0.2473    -4.5582    -1.2938 H       
  30 H30            1.2727    -4.6403    -0.3664 H       
  31 H31           -0.6355    -6.0826     0.5493 H       
  32 H32            0.0727    -4.9384     1.7183 H       
  33 H33           -2.9480    -2.5405     1.1461 H       
  34 H34           -1.4510    -2.6046     2.1115 H       
  35 H35           -1.0016    -1.1581     0.2306 H       
  36 H36           -1.6999    -2.3340    -0.9125 H       
  37 H37           -2.9182    -6.1735     0.8392 H       
  38 H38           -7.6749    -5.1455     1.3153 H       
  39 H39           -9.8625    -4.0109     1.6140 H       
  40 H40           -9.8964    -1.5441     1.9132 H       
  41 H41           -7.7111     0.3686     3.0195 H       
  42 H42           -6.9368     0.5693     1.4294 H       
  43 H43           -8.7119     0.5351     1.5569 H       
  44 H44            5.7207    -3.6942     2.7099 H       
  45 H45            6.8383    -3.1005     1.4582 H       
  46 H46            5.7393    -1.9670     2.2801 H       
@<TRIPOS>BOND
   1    1    2 ar
   2    1    6 ar
   3    1   26 1
   4    2    3 ar
   5    2   27 1
   6    3    4 ar
   7    3    7 1
   8    4    5 ar
   9    4   28 1
  10    5    6 ar
  11    5   25 1
  12    7    8 2
  13    7    9 am
  14    9   10 1
  15    9   14 1
  16   10   11 1
  17   10   29 1
  18   10   30 1
  19   11   12 1
  20   11   31 1
  21   11   32 1
  22   12   13 1
  23   12   15 2
  24   13   14 1
  25   13   33 1
  26   13   34 1
  27   14   35 1
  28   14   36 1
  29   15   16 1
  30   15   37 1
  31   16   17 3
  32   17   18 1
  33   18   19 ar
  34   18   23 ar
  35   19   20 ar
  36   19   38 1
  37   20   21 ar
  38   20   39 1
  39   21   22 ar
  40   21   40 1
  41   22   23 ar
  42   22   24 1
  43   24   41 1
  44   24   42 1
  45   24   43 1
  46   25   44 1
  47   25   45 1
  48   25   46 1

#	End of record

