#	Name: ASD01810201
#	Creating user name:	WinNT
#	Creation time:	15. 06. 2019 19:24

#	Modifying user name:	WinNT
#	Modification time:	15. 06. 2019 19:24

#	Program:	/corina/corina34_cracker 3.40 0067  02.08.2006

@<TRIPOS>MOLECULE
ASD01810201
  49   53    0    0    0
SMALL
NO_CHARGES


@<TRIPOS>ATOM
   1 C1             0.1040     1.4773     0.3907 C.ar    
   2 C2             0.0851     0.0901     0.3826 C.ar    
   3 C3             1.2536    -0.6294     0.2405 C.ar    
   4 C4             2.4698     0.0389     0.1031 C.ar    
   5 C5             2.4842     1.4436     0.1118 C.ar    
   6 C6             1.2944     2.1571     0.2564 C.ar    
   7 N7             3.6452    -0.6678    -0.0386 N.pl3   
   8 C8             4.8374    -0.0735    -0.1723 C.2     
   9 C9             4.9781     1.2998    -0.1781 C.2     
  10 C10            3.7771     2.1382    -0.0343 C.2     
  11 O11            3.8481     3.3547    -0.0335 O.2     
  12 C12            6.3050     1.9144    -0.3262 C.2     
  13 O13            6.4294     3.2567    -0.3303 O.3     
  14 O14            7.2902     1.2122    -0.4450 O.2     
  15 C15            3.5871    -2.1316    -0.0427 C.3     
  16 C16            3.4445    -2.6248    -1.4595 C.ar    
  17 C17            4.5668    -2.7659    -2.2561 C.ar    
  18 C18            4.4427    -3.2170    -3.5542 C.ar    
  19 C19            3.1827    -3.5313    -4.0626 C.ar    
  20 C20            2.0552    -3.3874    -3.2547 C.ar    
  21 C21            2.1926    -2.9400    -1.9566 C.ar    
  22 C22            3.0425    -4.0157    -5.4557 C.ar    
  23 C23            3.6381    -3.3274    -6.4971 C.ar    
  24 C24            3.5123    -3.7732    -7.8083 C.ar    
  25 C25            2.8013    -4.8973    -8.1026 C.ar    
  26 C26            2.1811    -5.6260    -7.0742 C.ar    
  27 C27            2.3024    -5.1908    -5.7325 C.ar    
  28 F28            1.2197    -1.9800     0.2349 F       
  29 C29            1.4404    -6.7916    -7.3482 C.ar    
  30 C30            0.8644    -7.4507    -6.2996 C.ar    
  31 C31            1.0193    -6.9640    -5.0037 C.ar    
  32 N32            1.7152    -5.8809    -4.7529 N.ar    
  33 H33           -0.8195     2.0267     0.4983 H       
  34 H34           -0.8543    -0.4321     0.4890 H       
  35 H35            1.3064     3.2371     0.2627 H       
  36 H36            5.7184    -0.6889    -0.2789 H       
  37 H37            7.3222     3.6145    -0.4304 H       
  38 H38            4.5030    -2.5328     0.3913 H       
  39 H39            2.7311    -2.4629     0.5452 H       
  40 H40            5.5420    -2.5221    -1.8612 H       
  41 H41            5.3194    -3.3261    -4.1753 H       
  42 H42            1.0768    -3.6290    -3.6431 H       
  43 H43            1.3202    -2.8285    -1.3298 H       
  44 H44            4.2071    -2.4332    -6.2897 H       
  45 H45            3.9853    -3.2194    -8.6057 H       
  46 H46            2.7141    -5.2282    -9.1269 H       
  47 H47            1.3305    -7.1544    -8.3595 H       
  48 H48            0.2892    -8.3478    -6.4750 H       
  49 H49            0.5585    -7.4948    -4.1838 H       
@<TRIPOS>BOND
   1    1    2 ar
   2    1    6 ar
   3    1   33 1
   4    2    3 ar
   5    2   34 1
   6    3    4 ar
   7    3   28 1
   8    4    5 ar
   9    4    7 1
  10    5    6 ar
  11    5   10 1
  12    6   35 1
  13    7    8 1
  14    7   15 1
  15    8    9 2
  16    8   36 1
  17    9   10 1
  18    9   12 1
  19   10   11 2
  20   12   13 1
  21   12   14 2
  22   13   37 1
  23   15   16 1
  24   15   38 1
  25   15   39 1
  26   16   17 ar
  27   16   21 ar
  28   17   18 ar
  29   17   40 1
  30   18   19 ar
  31   18   41 1
  32   19   20 ar
  33   19   22 1
  34   20   21 ar
  35   20   42 1
  36   21   43 1
  37   22   23 ar
  38   22   27 ar
  39   23   24 ar
  40   23   44 1
  41   24   25 ar
  42   24   45 1
  43   25   26 ar
  44   25   46 1
  45   26   27 ar
  46   26   29 ar
  47   27   32 ar
  48   29   30 ar
  49   29   47 1
  50   30   31 ar
  51   30   48 1
  52   31   32 ar
  53   31   49 1

#	End of record

