#	Name: ASD02820003
#	Creating user name:	WinNT
#	Creation time:	15. 06. 2019 20:26

#	Modifying user name:	WinNT
#	Modification time:	15. 06. 2019 20:26

#	Program:	/corina/corina34_cracker 3.40 0067  02.08.2006

@<TRIPOS>MOLECULE
ASD02820003
  32   34    0    0    0
SMALL
NO_CHARGES


@<TRIPOS>ATOM
   1 C1            -0.0158     1.4003     0.0644 C.ar    
   2 C2             0.0022    -0.0042     0.0058 C.ar    
   3 C3            -1.1990    -0.7257     0.0158 C.ar    
   4 C4            -2.4007    -0.0463     0.0837 C.ar    
   5 C5            -2.4156     1.3434     0.1416 C.ar    
   6 C6            -1.2318     2.0639     0.1272 C.ar    
   7 O7             1.1454     2.0877     0.0534 O.3     
   8 C8             2.3412     1.4776    -0.0125 C.2     
   9 C9             2.4677     0.1223    -0.0731 C.2     
  10 C10            1.3030    -0.6883    -0.0661 C.2     
  11 C11            3.5613     2.3056    -0.0198 C.ar    
  12 C12            4.6296     1.9865     0.8232 C.ar    
  13 C13            5.7708     2.7655     0.8119 C.ar    
  14 C14            5.8548     3.8664    -0.0385 C.ar    
  15 C15            4.7940     4.1838    -0.8753 C.ar    
  16 C16            3.6547     3.4080    -0.8738 C.ar    
  17 O17            6.8119     2.4581     1.6311 O.3     
  18 O18            6.9779     4.6312    -0.0481 O.3     
  19 O19            3.7009    -0.4494    -0.1390 O.3     
  20 O20            1.3773    -1.9056    -0.1188 O.2     
  21 O21           -1.1824    -2.0816    -0.0411 O.3     
  22 O22           -3.6017     2.0006     0.2076 O.3     
  23 H23           -3.3304    -0.5958     0.0915 H       
  24 H24           -1.2561     3.1427     0.1726 H       
  25 H25            4.5631     1.1333     1.4820 H       
  26 H26            4.8632     5.0380    -1.5325 H       
  27 H27            2.8309     3.6571    -1.5263 H       
  28 H28            7.4576     1.8554     1.2374 H       
  29 H29            7.6473     4.3390    -0.6818 H       
  30 H30            3.6851    -1.4154    -0.1786 H       
  31 H31           -1.1482    -2.5112     0.8245 H       
  32 H32           -3.9164     2.1546     1.1088 H       
@<TRIPOS>BOND
   1    1    2 ar
   2    1    7 1
   3    1    6 ar
   4    2    3 ar
   5    2   10 1
   6    3    4 ar
   7    3   21 1
   8    4    5 ar
   9    4   23 1
  10    5    6 ar
  11    5   22 1
  12    6   24 1
  13    7    8 1
  14    8    9 2
  15    8   11 1
  16    9   10 1
  17    9   19 1
  18   10   20 2
  19   11   12 ar
  20   11   16 ar
  21   12   13 ar
  22   12   25 1
  23   13   14 ar
  24   13   17 1
  25   14   15 ar
  26   14   18 1
  27   15   16 ar
  28   15   26 1
  29   16   27 1
  30   17   28 1
  31   18   29 1
  32   19   30 1
  33   21   31 1
  34   22   32 1

#	End of record

