#	Name: ASD02198132
#	Creating user name:	WinNT
#	Creation time:	15. 06. 2019 20:18

#	Modifying user name:	WinNT
#	Modification time:	15. 06. 2019 20:18

#	Program:	/corina/corina34_cracker 3.40 0067  02.08.2006

@<TRIPOS>MOLECULE
ASD02198132
  45   48    0    0    0
SMALL
NO_CHARGES


@<TRIPOS>ATOM
   1 C1             0.5074     1.5527    -0.4298 C.2     
   2 C2             0.7087     0.2385    -0.7946 C.2     
   3 C3            -0.3545    -0.6306    -1.2006 C.1     
   4 S4             1.9810     2.2979    -0.0053 S.3     
   5 C5             2.8903     0.8286    -0.3194 C.2     
   6 C6             2.0406    -0.1674    -0.7332 C.2     
   7 C7             4.2857     0.6920    -0.1689 C.2     
   8 C8             5.1084     1.8657     0.1831 C.2     
   9 O9             4.8129    -0.3961    -0.3297 O.2     
  10 N10            2.4648    -1.4476    -1.0578 N.pl3   
  11 N11           -0.7173     2.1803    -0.4158 N.pl3   
  12 N12           -1.1979    -1.3201    -1.5227 N.1     
  13 C13            5.4501     2.3274     1.4279 C.2     
  14 C14           -1.0225     3.0959     0.5966 C.ar    
  15 C15           -2.1891     3.8509     0.5257 C.ar    
  16 O16            6.2034     3.4144     1.2375 O.3     
  17 N17            6.3708     3.6823     0.0730 N.2     
  18 C18            5.7720     2.8292    -0.7190 C.2     
  19 C19            5.7547     2.8348    -2.2021 C.ar    
  20 C20           -2.4869     4.7543     1.5289 C.ar    
  21 C21           -1.6265     4.9073     2.6011 C.ar    
  22 C22           -0.4666     4.1586     2.6734 C.ar    
  23 C23           -0.1651     3.2495     1.6774 C.ar    
  24 F24           -3.0291     3.7016    -0.5218 F       
  25 C25            5.7365     4.0429    -2.8968 C.ar    
  26 C26            5.7209     4.0422    -4.2768 C.ar    
  27 C27            5.7228     2.8454    -4.9705 C.ar    
  28 C28            5.7408     1.6434    -4.2862 C.ar    
  29 C29            5.7623     1.6321    -2.9063 C.ar    
  30 C30            5.0531     1.7270     2.7518 C.3     
  31 H31            3.4054    -1.6767    -0.9976 H       
  32 H32            1.8207    -2.1137    -1.3449 H       
  33 H33           -1.3689     1.9876    -1.1081 H       
  34 H34           -3.3918     5.3413     1.4752 H       
  35 H35           -1.8613     5.6137     3.3836 H       
  36 H36            0.2028     4.2812     3.5120 H       
  37 H37            0.7414     2.6653     1.7353 H       
  38 H38            5.7343     4.9779    -2.3562 H       
  39 H39            5.7069     4.9777    -4.8162 H       
  40 H40            5.7099     2.8495    -6.0504 H       
  41 H41            5.7418     0.7119    -4.8328 H       
  42 H42            5.7764     0.6931    -2.3730 H       
  43 H43            5.8144     1.0151     3.0708 H       
  44 H44            4.9605     2.5178     3.4963 H       
  45 H45            4.0973     1.2138     2.6461 H       
@<TRIPOS>BOND
   1    1    2 2
   2    1    4 1
   3    1   11 1
   4    2    3 1
   5    2    6 1
   6    3   12 3
   7    4    5 1
   8    5    6 2
   9    5    7 1
  10    6   10 1
  11    7    8 1
  12    7    9 2
  13    8   13 2
  14    8   18 1
  15   10   31 1
  16   10   32 1
  17   11   14 1
  18   11   33 1
  19   13   16 1
  20   13   30 1
  21   14   15 ar
  22   14   23 ar
  23   15   20 ar
  24   15   24 1
  25   16   17 1
  26   17   18 2
  27   18   19 1
  28   19   25 ar
  29   19   29 ar
  30   20   21 ar
  31   20   34 1
  32   21   22 ar
  33   21   35 1
  34   22   23 ar
  35   22   36 1
  36   23   37 1
  37   25   26 ar
  38   25   38 1
  39   26   27 ar
  40   26   39 1
  41   27   28 ar
  42   27   40 1
  43   28   29 ar
  44   28   41 1
  45   29   42 1
  46   30   43 1
  47   30   44 1
  48   30   45 1

#	End of record

