#	Name: ASD03091411
#	Creating user name:	WinNT
#	Creation time:	15. 06. 2019 20:30

#	Modifying user name:	WinNT
#	Modification time:	15. 06. 2019 20:30

#	Program:	/corina/corina34_cracker 3.40 0067  02.08.2006

@<TRIPOS>MOLECULE
ASD03091411
  28   30    0    0    0
SMALL
NO_CHARGES


@<TRIPOS>ATOM
   1 C1             0.1471     1.0824     0.5400 C.3     
   2 C2             0.3125    -0.4257     0.8017 C.3     
   3 N3             0.4266    -0.6187     2.2573 N.3     
   4 C4             0.3938     0.7040     2.9129 C.3     
   5 C5            -0.3343     1.6360     1.9196 C.3     
   6 C6             0.3331     3.0277     1.9626 C.3     
   7 N7             1.6246     2.8682     1.2747 N.am    
   8 C8             1.5382     1.7179     0.3666 C.3     
   9 C9             2.7084     3.6502     1.4495 C.2     
  10 O10            2.6424     4.6290     2.1681 O.2     
  11 S11            5.7341     2.3195    -0.6505 S.3     
  12 N12            6.2050     3.6105     0.3415 N.2     
  13 C13            5.1637     4.0013     1.0052 C.2     
  14 C14            3.9730     3.3190     0.7698 C.2     
  15 C15            4.0861     2.3049    -0.1577 C.2     
  16 H16           -0.5292     1.3016    -0.2862 H       
  17 H17           -0.5575    -0.9636     0.4249 H       
  18 H18            1.2143    -0.7893     0.3092 H       
  19 H19           -0.3131    -1.2118     2.6025 H       
  20 H20           -0.1585     0.6468     3.8509 H       
  21 H21            1.4077     1.0617     3.0923 H       
  22 H22           -1.4173     1.6490     2.0415 H       
  23 H23           -0.2845     3.7581     1.4400 H       
  24 H24            0.4921     3.3376     2.9954 H       
  25 H25            2.3100     0.9905     0.6182 H       
  26 H26            1.6660     2.0506    -0.6634 H       
  27 H27            5.2167     4.8187     1.7091 H       
  28 H28            3.3056     1.6424    -0.5019 H       
@<TRIPOS>BOND
   1    1    2 1
   2    1    8 1
   3    1    5 1
   4    1   16 1
   5    2    3 1
   6    2   17 1
   7    2   18 1
   8    3    4 1
   9    3   19 1
  10    4    5 1
  11    4   20 1
  12    4   21 1
  13    5    6 1
  14    5   22 1
  15    6    7 1
  16    6   23 1
  17    6   24 1
  18    7    8 1
  19    7    9 am
  20    8   25 1
  21    8   26 1
  22    9   10 2
  23    9   14 1
  24   11   12 1
  25   11   15 1
  26   12   13 2
  27   13   14 1
  28   13   27 1
  29   14   15 2
  30   15   28 1

#	End of record

