#	Name: ASD03540518
#	Creating user name:	WinNT
#	Creation time:	15. 06. 2019 20:43

#	Modifying user name:	WinNT
#	Modification time:	15. 06. 2019 20:43

#	Program:	/corina/corina34_cracker 3.40 0067  02.08.2006

@<TRIPOS>MOLECULE
ASD03540518
  57   60    0    0    0
SMALL
NO_CHARGES


@<TRIPOS>ATOM
   1 C1             2.7497    -8.6908    -2.5538 C.2     
   2 C2             2.0591    -7.5582    -1.9036 C.ar    
   3 C3             0.6735    -7.5858    -1.7339 C.ar    
   4 C4             0.0350    -6.5251    -1.1255 C.ar    
   5 C5             0.7646    -5.4353    -0.6843 C.ar    
   6 C6             2.1379    -5.4012    -0.8497 C.ar    
   7 C7             2.7898    -6.4579    -1.4508 C.ar    
   8 O8             2.1120    -9.6489    -2.9422 O.2     
   9 O9             4.0860    -8.6585    -2.7210 O.3     
  10 C10            0.0601    -4.2800    -0.0210 C.3     
  11 C11           -2.2993    -4.3349     0.5385 C.2     
  12 N12           -3.3744    -4.7488     1.2289 N.am    
  13 C13           -3.2506    -5.6775     2.2434 C.ar    
  14 C14           -1.9684    -6.1827     2.5383 C.ar    
  15 C15           -0.8229    -5.6955     1.7503 C.2     
  16 N16           -1.0579    -4.7846     0.7800 N.am    
  17 C17           -1.8141    -7.1183     3.5547 C.ar    
  18 C18           -2.9605    -7.5220     4.2502 C.ar    
  19 C19           -4.1981    -6.9744     3.8983 C.ar    
  20 N20           -4.3051    -6.0901     2.9294 N.ar    
  21 O21            0.3026    -6.1010     1.9673 O.2     
  22 O22           -2.4584    -3.5194    -0.3489 O.2     
  23 C23            1.0426    -3.5364     0.8860 C.3     
  24 C24           -2.8639    -8.5131     5.3403 C.2     
  25 N25           -3.9730    -8.8954     6.0038 N.am    
  26 O26           -1.7838    -8.9844     5.6394 O.2     
  27 C27           -3.8771    -9.8788     7.0855 C.3     
  28 C28           -5.2480   -10.1307     7.6584 C.ar    
  29 C29           -6.0433   -11.1312     7.1309 C.ar    
  30 C30           -7.3003   -11.3640     7.6543 C.ar    
  31 C31           -7.7645   -10.5931     8.7101 C.ar    
  32 C32           -6.9646    -9.5898     9.2376 C.ar    
  33 C33           -5.7061    -9.3646     8.7143 C.ar    
  34 O34           -9.0010   -10.8199     9.2265 O.3     
  35 C35           -9.4131    -9.9877    10.3126 C.3     
  36 H36            0.1028    -8.4355    -2.0785 H       
  37 H37           -1.0367    -6.5451    -0.9936 H       
  38 H38            2.7012    -4.5472    -0.5036 H       
  39 H39            3.8623    -6.4322    -1.5749 H       
  40 H40            4.4931    -9.4226    -3.1516 H       
  41 H41           -0.3176    -3.5986    -0.7834 H       
  42 H42           -4.2493    -4.3904     1.0123 H       
  43 H43           -0.8423    -7.5208     3.7997 H       
  44 H44           -5.0845    -7.2837     4.4323 H       
  45 H45            1.4202    -4.2177     1.6484 H       
  46 H46            1.8744    -3.1609     0.2901 H       
  47 H47            0.5330    -2.7008     1.3658 H       
  48 H48           -4.8347    -8.5194     5.7652 H       
  49 H49           -3.4700   -10.8111     6.6939 H       
  50 H50           -3.2212    -9.4961     7.8674 H       
  51 H51           -5.6816   -11.7309     6.3087 H       
  52 H52           -7.9213   -12.1454     7.2417 H       
  53 H53           -7.3238    -8.9883    10.0595 H       
  54 H54           -5.0811    -8.5869     9.1278 H       
  55 H55           -9.4165    -8.9461     9.9913 H       
  56 H56          -10.4163   -10.2736    10.6290 H       
  57 H57           -8.7210   -10.1086    11.1459 H       
@<TRIPOS>BOND
   1    1    2 1
   2    1    8 2
   3    1    9 1
   4    2    3 ar
   5    2    7 ar
   6    3    4 ar
   7    3   36 1
   8    4    5 ar
   9    4   37 1
  10    5    6 ar
  11    5   10 1
  12    6    7 ar
  13    6   38 1
  14    7   39 1
  15    9   40 1
  16   10   16 1
  17   10   23 1
  18   10   41 1
  19   11   12 am
  20   11   16 am
  21   11   22 2
  22   12   13 1
  23   12   42 1
  24   13   14 ar
  25   13   20 ar
  26   14   15 1
  27   14   17 ar
  28   15   16 am
  29   15   21 2
  30   17   18 ar
  31   17   43 1
  32   18   19 ar
  33   18   24 1
  34   19   20 ar
  35   19   44 1
  36   23   45 1
  37   23   46 1
  38   23   47 1
  39   24   25 am
  40   24   26 2
  41   25   27 1
  42   25   48 1
  43   27   28 1
  44   27   49 1
  45   27   50 1
  46   28   29 ar
  47   28   33 ar
  48   29   30 ar
  49   29   51 1
  50   30   31 ar
  51   30   52 1
  52   31   32 ar
  53   31   34 1
  54   32   33 ar
  55   32   53 1
  56   33   54 1
  57   34   35 1
  58   35   55 1
  59   35   56 1
  60   35   57 1

#	End of record

