#	Name: ASD01883427
#	Creating user name:	WinNT
#	Creation time:	15. 06. 2019 19:46

#	Modifying user name:	WinNT
#	Modification time:	15. 06. 2019 19:46

#	Program:	/corina/corina34_cracker 3.40 0067  02.08.2006

@<TRIPOS>MOLECULE
ASD01883427
  52   54    0    0    0
SMALL
NO_CHARGES


@<TRIPOS>ATOM
   1 N1            -0.0080     1.3271     0.0354 N.am    
   2 C2            -0.3623     0.6471    -1.0708 C.2     
   3 C3            -1.5938    -0.0487    -1.1070 C.2     
   4 C4            -2.4239    -0.0108     0.0261 C.2     
   5 C5            -1.9981     0.7175     1.1524 C.2     
   6 C6            -0.8092     1.3586     1.1319 C.2     
   7 O7             0.3768     0.6309    -2.0406 O.2     
   8 C8            -1.9868    -0.7769    -2.2757 C.1     
   9 N9            -2.2985    -1.3546    -3.2029 N.1     
  10 N10           -3.6309    -0.6732     0.0341 N.pl3   
  11 C11           -4.8919     0.0702     0.1608 C.3     
  12 C12           -5.6944    -0.5155     1.3268 C.3     
  13 C13           -5.8708    -2.0207     1.1144 C.3     
  14 C14           -4.4985    -2.6976     1.0843 C.3     
  15 C15           -3.6827    -2.1362    -0.0901 C.3     
  16 C16            1.2701     2.0427     0.0594 C.3     
  17 C17            1.0645     3.4711    -0.4488 C.3     
  18 C18            2.3993     4.2185    -0.4237 C.3     
  19 C19            2.1937     5.6469    -0.9319 C.3     
  20 C20           -6.6890    -2.5945     2.2424 C.ar    
  21 C21           -6.2527    -2.5004     3.5548 C.ar    
  22 C22           -7.0302    -3.0381     4.5633 C.ar    
  23 N23           -8.1734    -3.6348     4.2882 N.ar    
  24 C24           -8.6195    -3.7426     3.0517 C.ar    
  25 C25           -7.8991    -3.2241     1.9927 C.ar    
  26 C26           -9.9326    -4.4348     2.7914 C.3     
  27 H27           -2.6200     0.7608     2.0343 H       
  28 H28           -0.4930     1.9144     2.0022 H       
  29 H29           -4.6785     1.1212     0.3555 H       
  30 H30           -5.4656    -0.0236    -0.7613 H       
  31 H31           -5.1602    -0.3399     2.2606 H       
  32 H32           -6.6729    -0.0373     1.3715 H       
  33 H33           -6.3831    -2.1964     0.1685 H       
  34 H34           -3.9756    -2.5016     2.0204 H       
  35 H35           -4.6258    -3.7726     0.9564 H       
  36 H36           -4.1593    -2.4118    -1.0309 H       
  37 H37           -2.6709    -2.5405    -0.0585 H       
  38 H38            1.6512     2.0716     1.0802 H       
  39 H39            1.9865     1.5287    -0.5814 H       
  40 H40            0.6835     3.4422    -1.4696 H       
  41 H41            0.3482     3.9852     0.1920 H       
  42 H42            2.7804     4.2474     0.5972 H       
  43 H43            3.1157     3.7044    -1.0645 H       
  44 H44            1.8127     5.6180    -1.9527 H       
  45 H45            1.4774     6.1610    -0.2911 H       
  46 H46            3.1447     6.1793    -0.9140 H       
  47 H47           -5.3169    -2.0135     3.7864 H       
  48 H48           -6.6974    -2.9690     5.5884 H       
  49 H49           -8.2697    -3.3156     0.9824 H       
  50 H50          -10.7415    -3.7050     2.8281 H       
  51 H51           -9.9084    -4.9013     1.8066 H       
  52 H52          -10.0976    -5.1986     3.5513 H       
@<TRIPOS>BOND
   1    1    2 am
   2    1   16 1
   3    1    6 1
   4    2    3 1
   5    2    7 2
   6    3    4 2
   7    3    8 1
   8    4    5 1
   9    4   10 1
  10    5    6 2
  11    5   27 1
  12    6   28 1
  13    8    9 3
  14   10   11 1
  15   10   15 1
  16   11   12 1
  17   11   29 1
  18   11   30 1
  19   12   13 1
  20   12   31 1
  21   12   32 1
  22   13   14 1
  23   13   20 1
  24   13   33 1
  25   14   15 1
  26   14   34 1
  27   14   35 1
  28   15   36 1
  29   15   37 1
  30   16   17 1
  31   16   38 1
  32   16   39 1
  33   17   18 1
  34   17   40 1
  35   17   41 1
  36   18   19 1
  37   18   42 1
  38   18   43 1
  39   19   44 1
  40   19   45 1
  41   19   46 1
  42   20   21 ar
  43   20   25 ar
  44   21   22 ar
  45   21   47 1
  46   22   23 ar
  47   22   48 1
  48   23   24 ar
  49   24   25 ar
  50   24   26 1
  51   25   49 1
  52   26   50 1
  53   26   51 1
  54   26   52 1

#	End of record

