#	Name: ASD01885766
#	Creating user name:	WinNT
#	Creation time:	15. 06. 2019 19:50

#	Modifying user name:	WinNT
#	Modification time:	15. 06. 2019 19:50

#	Program:	/corina/corina34_cracker 3.40 0067  02.08.2006

@<TRIPOS>MOLECULE
ASD01885766
  55   57    0    0    0
SMALL
NO_CHARGES


@<TRIPOS>ATOM
   1 C1            -0.0160     1.3294     0.0094 C.ar    
   2 C2            -1.2520     2.0240     0.0189 C.ar    
   3 C3            -2.4596     1.2809     0.0205 C.ar    
   4 C4            -2.3700    -0.1047     0.0125 C.ar    
   5 C5            -1.1108    -0.7138     0.0033 C.ar    
   6 N6             0.0021    -0.0041     0.0020 N.ar    
   7 C7             1.1364     3.4285     0.0097 C.ar    
   8 C8            -0.0805     4.1065     0.0258 C.ar    
   9 C9            -1.2606     3.4246     0.0271 C.ar    
  10 C10           -3.7749     1.9611     0.0308 C.2     
  11 C11           -1.0240    -2.1941    -0.0047 C.2     
  12 C12            2.4227     4.2136     0.0097 C.3     
  13 N13            2.8503     4.4530     1.3945 N.3     
  14 C14            1.1821     2.0685     0.0019 C.ar    
  15 N15            0.1806    -2.7985    -0.0130 N.am    
  16 O16           -2.0389    -2.8621    -0.0037 O.2     
  17 C17            4.2124     5.0045     1.4375 C.3     
  18 C18            4.5943     5.2940     2.8916 C.3     
  19 O19            4.4717     4.0937     3.6594 O.3     
  20 C20            3.1576     3.5297     3.6402 C.3     
  21 C21            2.7611     3.2223     2.1937 C.3     
  22 C22           -4.1737     2.9926     0.9058 C.2     
  23 N23           -5.3982     3.3304     0.6020 N.2     
  24 N24           -5.8277     2.5369    -0.4684 N.pl3   
  25 C25           -4.8227     1.7081    -0.8100 C.2     
  26 C26            6.0395     5.7928     2.9506 C.3     
  27 F27            6.1597     6.9642     2.1953 F       
  28 F28            6.3877     6.0571     4.2796 F       
  29 F29            6.8925     4.8132     2.4310 F       
  30 H30           -3.2660    -0.7077     0.0137 H       
  31 H31           -0.0889     5.1864     0.0378 H       
  32 H32           -2.1976     3.9616     0.0341 H       
  33 H33            3.1929     3.6491    -0.5159 H       
  34 H34            2.2657     5.1683    -0.4923 H       
  35 H35            2.1338     1.5582    -0.0097 H       
  36 H36            0.9908    -2.2651    -0.0139 H       
  37 H37            0.2373    -3.7668    -0.0182 H       
  38 H38            4.9109     4.2825     1.0146 H       
  39 H39            4.2493     5.9286     0.8606 H       
  40 H40            3.9288     6.0556     3.2980 H       
  41 H41            3.1480     2.6090     4.2236 H       
  42 H42            2.4503     4.2400     4.0683 H       
  43 H43            1.7386     2.8455     2.1688 H       
  44 H44            3.4364     2.4718     1.7828 H       
  45 H45           -3.5719     3.4271     1.6902 H       
  46 H46           -6.6981     2.5802    -0.8944 H       
  47 H47           -4.8419     0.9749    -1.6027 H       
  48 C48           12.8944    13.8713    10.1848 C.3     
  49 C49           12.9151    12.3415    10.1764 C.3     
  50 H50           13.9170    14.2486    10.1770 H       
  51 H51           12.3672    14.2324     9.3017 H       
  52 H52           12.3842    14.2228    11.0816 H       
  53 H53           13.4423    11.9804    11.0594 H       
  54 H54           11.8925    11.9642    10.1841 H       
  55 H55           13.4253    11.9900     9.2796 H       
@<TRIPOS>BOND
   1    1    6 ar
   2    1   14 ar
   3    1    2 ar
   4    2    3 ar
   5    2    9 ar
   6    3   10 1
   7    3    4 ar
   8    4    5 ar
   9    4   30 1
  10    5   11 1
  11    5    6 ar
  12    7   12 1
  13    7    8 ar
  14    7   14 ar
  15    8    9 ar
  16    8   31 1
  17    9   32 1
  18   10   25 2
  19   10   22 1
  20   11   15 am
  21   11   16 2
  22   12   13 1
  23   12   33 1
  24   12   34 1
  25   13   17 1
  26   13   21 1
  27   14   35 1
  28   15   36 1
  29   15   37 1
  30   17   18 1
  31   17   38 1
  32   17   39 1
  33   18   19 1
  34   18   26 1
  35   18   40 1
  36   19   20 1
  37   20   21 1
  38   20   41 1
  39   20   42 1
  40   21   43 1
  41   21   44 1
  42   22   23 2
  43   22   45 1
  44   23   24 1
  45   24   25 1
  46   24   46 1
  47   25   47 1
  48   26   27 1
  49   26   28 1
  50   26   29 1
  51   48   49 1
  52   48   50 1
  53   48   51 1
  54   48   52 1
  55   49   53 1
  56   49   54 1
  57   49   55 1

#	End of record

