#	Name: ASD01410593
#	Creating user name:	WinNT
#	Creation time:	15. 06. 2019 19:18

#	Modifying user name:	WinNT
#	Modification time:	15. 06. 2019 19:18

#	Program:	/corina/corina34_cracker 3.40 0067  02.08.2006

@<TRIPOS>MOLECULE
ASD01410593
  72   75    0    0    0
SMALL
NO_CHARGES


@<TRIPOS>ATOM
   1 C1            -2.3725     3.1774     2.1001 C.ar    
   2 O2            -2.4799     2.6746     0.8435 O.3     
   3 C3            -3.1193     1.4855     0.6843 C.ar    
   4 C4            -4.5041     1.4244     0.7868 C.ar    
   5 C5            -5.1631     0.2223     0.6274 C.ar    
   6 C6            -4.4456    -0.9361     0.3632 C.ar    
   7 C7            -3.0474    -0.8812     0.2581 C.ar    
   8 C8            -2.3901     0.3413     0.4154 C.ar    
   9 N9            -5.1118    -2.1502     0.2033 N.am    
  10 C10           -5.5136    -2.5421    -1.0220 C.2     
  11 C11           -5.3752    -3.0001     1.3671 C.3     
  12 O12           -6.1671    -3.5557    -1.1506 O.2     
  13 C13           -5.1510    -1.7208    -2.2324 C.3     
  14 C14           -6.2887    -1.7871    -3.2533 C.3     
  15 C15           -5.9205    -0.9532    -4.4821 C.3     
  16 C16           -4.6396    -1.5072    -5.1092 C.3     
  17 C17           -3.5019    -1.4409    -4.0884 C.3     
  18 C18           -3.8701    -2.2748    -2.8595 C.3     
  19 C19           -4.2714    -0.6734    -6.3381 C.3     
  20 C20           -4.6346    -2.4421     2.5842 C.3     
  21 O21           -7.5575    -3.6666     0.5710 O.3     
  22 C22           -6.8784    -3.0239     1.6516 C.3     
  23 C23           -8.9747    -3.7419     0.7379 C.3     
  24 O24           -3.2252    -2.5235     2.3626 O.3     
  25 C25           -2.4370    -2.0253     3.4455 C.3     
  26 C26           -1.7056     4.3997     2.3223 C.ar    
  27 C27           -1.6058     4.9061     3.6418 C.ar    
  28 C28           -2.1718     4.1823     4.7048 C.ar    
  29 C29           -2.8097     3.0044     4.4609 C.ar    
  30 C30           -2.9188     2.5010     3.1678 C.ar    
  31 C31           -1.1386     5.1237     1.2613 C.ar    
  32 C32           -0.5016     6.3003     1.5128 C.ar    
  33 C33           -0.4030     6.7992     2.8103 C.ar    
  34 C34           -0.9409     6.1248     3.8629 C.ar    
  35 C35           -2.2768    -2.1061    -0.0217 C.2     
  36 O36           -2.8561    -3.1507    -0.2446 O.2     
  37 O37           -0.9298    -2.0675    -0.0305 O.3     
  38 H38           -5.0675     2.3225     0.9926 H       
  39 H39           -6.2393     0.1828     0.7089 H       
  40 H40           -1.3142     0.3915     0.3359 H       
  41 H41           -5.0279    -4.0130     1.1634 H       
  42 H42           -4.9907    -0.6848    -1.9338 H       
  43 H43           -6.4490    -2.8231    -3.5519 H       
  44 H44           -7.2012    -1.3924    -2.8065 H       
  45 H45           -6.7310    -1.0005    -5.2094 H       
  46 H46           -5.7602     0.0827    -4.1835 H       
  47 H47           -4.7999    -2.5432    -5.4079 H       
  48 H48           -2.5894    -1.8356    -4.5352 H       
  49 H49           -3.3416    -0.4049    -3.7897 H       
  50 H50           -3.0596    -2.2275    -2.1323 H       
  51 H51           -4.0304    -3.3107    -3.1582 H       
  52 H52           -4.1111     0.3626    -6.0395 H       
  53 H53           -3.3589    -1.0681    -6.7849 H       
  54 H54           -5.0819    -0.7206    -7.0654 H       
  55 H55           -4.9190    -1.4010     2.7366 H       
  56 H56           -4.8977    -3.0237     3.4677 H       
  57 H57           -7.0647    -3.5719     2.5752 H       
  58 H58           -7.2448    -2.0025     1.7549 H       
  59 H59           -9.2046    -4.3049     1.6426 H       
  60 H60           -9.3847    -2.7355     0.8223 H       
  61 H61           -9.4160    -4.2429    -0.1237 H       
  62 H62           -2.6757    -0.9755     3.6158 H       
  63 H63           -2.6545    -2.5983     4.3468 H       
  64 H64           -1.3795    -2.1222     3.1997 H       
  65 H65           -2.1007     4.5597     5.7142 H       
  66 H66           -3.2418     2.4540     5.2835 H       
  67 H67           -3.4302     1.5645     3.0010 H       
  68 H68           -1.2071     4.7489     0.2508 H       
  69 H69           -0.0660     6.8550     0.6949 H       
  70 H70            0.1079     7.7349     2.9831 H       
  71 H71           -0.8564     6.5233     4.8632 H       
  72 H72           -0.4681    -2.8959    -0.2190 H       
@<TRIPOS>BOND
   1    1    2 1
   2    1   26 ar
   3    1   30 ar
   4    2    3 1
   5    3    4 ar
   6    3    8 ar
   7    4    5 ar
   8    4   38 1
   9    5    6 ar
  10    5   39 1
  11    6    7 ar
  12    6    9 1
  13    7    8 ar
  14    7   35 1
  15    8   40 1
  16    9   10 am
  17    9   11 1
  18   10   12 2
  19   10   13 1
  20   11   20 1
  21   11   22 1
  22   11   41 1
  23   13   14 1
  24   13   18 1
  25   13   42 1
  26   14   15 1
  27   14   43 1
  28   14   44 1
  29   15   16 1
  30   15   45 1
  31   15   46 1
  32   16   17 1
  33   16   19 1
  34   16   47 1
  35   17   18 1
  36   17   48 1
  37   17   49 1
  38   18   50 1
  39   18   51 1
  40   19   52 1
  41   19   53 1
  42   19   54 1
  43   20   24 1
  44   20   55 1
  45   20   56 1
  46   21   22 1
  47   21   23 1
  48   22   57 1
  49   22   58 1
  50   23   59 1
  51   23   60 1
  52   23   61 1
  53   24   25 1
  54   25   62 1
  55   25   63 1
  56   25   64 1
  57   26   27 ar
  58   26   31 ar
  59   27   28 ar
  60   27   34 ar
  61   28   29 ar
  62   28   65 1
  63   29   30 ar
  64   29   66 1
  65   30   67 1
  66   31   32 ar
  67   31   68 1
  68   32   33 ar
  69   32   69 1
  70   33   34 ar
  71   33   70 1
  72   34   71 1
  73   35   36 2
  74   35   37 1
  75   37   72 1

#	End of record

