#	Name: ASD01900876
#	Creating user name:	WinNT
#	Creation time:	15. 06. 2019 19:52

#	Modifying user name:	WinNT
#	Modification time:	15. 06. 2019 19:52

#	Program:	/corina/corina34_cracker 3.40 0067  02.08.2006

@<TRIPOS>MOLECULE
ASD01900876
  52   56    0    0    0
SMALL
NO_CHARGES


@<TRIPOS>ATOM
   1 C1            -0.0666     1.5265    -0.6953 C.ar    
   2 C2            -0.1913     0.1774    -0.4394 C.ar    
   3 C3             0.7604    -0.4857     0.3195 C.ar    
   4 C4             1.8439     0.1973     0.8372 C.ar    
   5 C5             1.9815     1.5538     0.5928 C.ar    
   6 C6             1.0261     2.2280    -0.1865 C.ar    
   7 N7             3.0499     2.2784     1.1149 N.pl3   
   8 C8             3.4655     3.4986     0.4195 C.3     
   9 N9             2.3428     4.2819    -0.0909 N.am    
  10 C10            1.1936     3.6686    -0.4467 C.2     
  11 C11            2.4588     5.6723    -0.2114 C.ar    
  12 C12            2.0613     6.4958     0.8337 C.ar    
  13 C13            2.1759     7.8666     0.7141 C.ar    
  14 C14            2.6880     8.4213    -0.4498 C.ar    
  15 C15            3.0853     7.5993    -1.4943 C.ar    
  16 C16            2.9766     6.2280    -1.3739 C.ar    
  17 O17            2.8002     9.7713    -0.5670 O.3     
  18 O18            0.3016     4.3018    -0.9783 O.2     
  19 C19            3.3357    10.2738    -1.7929 C.3     
  20 C20            4.4893     4.3301     1.2049 C.3     
  21 C21            4.5763     3.2665    -0.6137 C.3     
  22 N22            5.1821     4.5121    -0.0907 N.3     
  23 C23            6.6355     4.3658     0.0644 C.3     
  24 C24            7.2955     4.4442    -1.2882 C.ar    
  25 C25            7.7783     3.2969    -1.8893 C.ar    
  26 C26            8.3841     3.3688    -3.1297 C.ar    
  27 C27            8.5074     4.5881    -3.7698 C.ar    
  28 C28            8.0246     5.7357    -3.1700 C.ar    
  29 C29            7.4130     5.6635    -1.9309 C.ar    
  30 Cl30           6.7999     7.1036    -1.1800 Cl      
  31 H31           -0.8093     2.0366    -1.2908 H       
  32 H32           -1.0371    -0.3668    -0.8330 H       
  33 H33            0.6538    -1.5438     0.5078 H       
  34 H34            2.5805    -0.3243     1.4302 H       
  35 H35            3.5065     1.9831     1.9181 H       
  36 H36            1.6623     6.0641     1.7397 H       
  37 H37            1.8665     8.5072     1.5267 H       
  38 H38            3.4839     8.0319    -2.4001 H       
  39 H39            3.2904     5.5880    -2.1853 H       
  40 H40            3.3708    11.3626    -1.7548 H       
  41 H41            4.3429     9.8826    -1.9367 H       
  42 H42            2.7019     9.9595    -2.6221 H       
  43 H43            4.0818     5.2524     1.6188 H       
  44 H44            5.0605     3.7521     1.9314 H       
  45 H45            5.1732     2.3743    -0.4244 H       
  46 H46            4.2382     3.3425    -1.6471 H       
  47 H47            7.0153     5.1651     0.7009 H       
  48 H48            6.8569     3.4013     0.5213 H       
  49 H49            7.6826     2.3443    -1.3896 H       
  50 H50            8.7615     2.4722    -3.5988 H       
  51 H51            8.9814     4.6437    -4.7386 H       
  52 H52            8.1213     6.6881    -3.6700 H       
@<TRIPOS>BOND
   1    1    2 ar
   2    1    6 ar
   3    1   31 1
   4    2    3 ar
   5    2   32 1
   6    3    4 ar
   7    3   33 1
   8    4    5 ar
   9    4   34 1
  10    5    7 1
  11    5    6 ar
  12    6   10 1
  13    7    8 1
  14    7   35 1
  15    8    9 1
  16    8   20 1
  17    8   21 1
  18    9   10 am
  19    9   11 1
  20   10   18 2
  21   11   12 ar
  22   11   16 ar
  23   12   13 ar
  24   12   36 1
  25   13   14 ar
  26   13   37 1
  27   14   15 ar
  28   14   17 1
  29   15   16 ar
  30   15   38 1
  31   16   39 1
  32   17   19 1
  33   19   40 1
  34   19   41 1
  35   19   42 1
  36   20   22 1
  37   20   43 1
  38   20   44 1
  39   21   22 1
  40   21   45 1
  41   21   46 1
  42   22   23 1
  43   23   24 1
  44   23   47 1
  45   23   48 1
  46   24   25 ar
  47   24   29 ar
  48   25   26 ar
  49   25   49 1
  50   26   27 ar
  51   26   50 1
  52   27   28 ar
  53   27   51 1
  54   28   29 ar
  55   28   52 1
  56   29   30 1

#	End of record

