#	Name: ASD08150739
#	Creating user name:	WinNT
#	Creation time:	15. 06. 2019 21:16

#	Modifying user name:	WinNT
#	Modification time:	15. 06. 2019 21:16

#	Program:	/corina/corina34_cracker 3.40 0067  02.08.2006

@<TRIPOS>MOLECULE
ASD08150739
  46   50    0    0    0
SMALL
NO_CHARGES


@<TRIPOS>ATOM
   1 C1            -0.0158     1.3168     0.0093 C.2     
   2 N2             0.0021    -0.0041     0.0020 N.2     
   3 C3             1.1387    -0.6846    -0.0125 C.2     
   4 C4             2.3424     0.0131    -0.0203 C.2     
   5 C5             2.3160     1.4197    -0.0125 C.2     
   6 N6             1.1169     2.0725     0.0025 N.am    
   7 S7            -1.3640     2.4677     0.0210 S.3     
   8 C8             0.9183     3.4311     0.0118 C.2     
   9 C9            -0.3178     3.8980     0.0246 C.2     
  10 O10            3.3590     2.0528    -0.0187 O.2     
  11 C11            2.0925     4.3757     0.0056 C.3     
  12 C12            1.1279    -2.1915    -0.0200 C.3     
  13 C13            0.5274    -2.7038     1.2907 C.3     
  14 N14            0.3212    -2.6685    -1.1460 N.pl3   
  15 N15           -1.2283    -3.8926    -3.5008 N.2     
  16 C16           -1.5799    -4.7619    -4.4028 C.2     
  17 N17           -0.8052    -5.8795    -4.2994 N.pl3   
  18 C18            0.0749    -5.6758    -3.2669 C.ar    
  19 N19            1.0475    -6.3894    -2.7089 N.ar    
  20 C20            1.7395    -5.9053    -1.6958 C.ar    
  21 N21            1.5083    -4.7058    -1.1888 N.ar    
  22 C22            0.5554    -3.9222    -1.6829 C.ar    
  23 C23           -0.2085    -4.3952    -2.7632 C.ar    
  24 F24            2.7200    -6.6621    -1.1565 F       
  25 C25            3.6328    -0.7145    -0.0361 C.ar    
  26 C26            4.4822    -0.6084    -1.1368 C.ar    
  27 C27            5.6853    -1.2888    -1.1466 C.ar    
  28 C28            6.0478    -2.0750    -0.0652 C.ar    
  29 C29            5.2072    -2.1840     1.0305 C.ar    
  30 C30            4.0046    -1.5030     1.0522 C.ar    
  31 F31            5.5660    -2.9527     2.0819 F       
  32 F32            6.5089    -1.1871    -2.2127 F       
  33 H33           -0.6257     4.9332     0.0310 H       
  34 H34            2.3658     4.6090    -1.0235 H       
  35 H35            1.8228     5.2941     0.5270 H       
  36 H36            2.9383     3.9072     0.5088 H       
  37 H37            2.1481    -2.5617    -0.1214 H       
  38 H38           -0.4928    -2.3336     1.3921 H       
  39 H39            0.5197    -3.7937     1.2853 H       
  40 H40            1.1277    -2.3489     2.1285 H       
  41 H41           -0.3771    -2.1056    -1.5152 H       
  42 H42           -2.3692    -4.6197    -5.1262 H       
  43 H43           -0.8657    -6.6731    -4.8539 H       
  44 H44            4.2003     0.0041    -1.9805 H       
  45 H45            6.9887    -2.6051    -0.0766 H       
  46 H46            3.3521    -1.5847     1.9089 H       
@<TRIPOS>BOND
   1    1    2 2
   2    1    6 1
   3    1    7 1
   4    2    3 1
   5    3    4 2
   6    3   12 1
   7    4    5 1
   8    4   25 1
   9    5    6 am
  10    5   10 2
  11    6    8 1
  12    7    9 1
  13    8    9 2
  14    8   11 1
  15    9   33 1
  16   11   34 1
  17   11   35 1
  18   11   36 1
  19   12   13 1
  20   12   14 1
  21   12   37 1
  22   13   38 1
  23   13   39 1
  24   13   40 1
  25   14   22 1
  26   14   41 1
  27   15   16 2
  28   15   23 1
  29   16   17 1
  30   16   42 1
  31   17   18 1
  32   17   43 1
  33   18   19 ar
  34   18   23 ar
  35   19   20 ar
  36   20   21 ar
  37   20   24 1
  38   21   22 ar
  39   22   23 ar
  40   25   26 ar
  41   25   30 ar
  42   26   27 ar
  43   26   44 1
  44   27   28 ar
  45   27   32 1
  46   28   29 ar
  47   28   45 1
  48   29   30 ar
  49   29   31 1
  50   30   46 1

#	End of record

