#	Name: ASD03331274
#	Creating user name:	WinNT
#	Creation time:	15. 06. 2019 20:38

#	Modifying user name:	WinNT
#	Modification time:	15. 06. 2019 20:38

#	Program:	/corina/corina34_cracker 3.40 0067  02.08.2006

@<TRIPOS>MOLECULE
ASD03331274
  44   47    0    0    0
SMALL
NO_CHARGES


@<TRIPOS>ATOM
   1 N1            -0.0439     1.4495     0.1966 N.am    
   2 C2            -0.0309    -0.0061     0.4072 C.3     
   3 C3             0.7554    -0.6563    -0.7361 C.3     
   4 N4             2.0810    -0.0307    -0.8323 N.3     
   5 C5             1.9742     1.3949    -1.1699 C.3     
   6 C6             1.2379     2.1292    -0.0444 C.3     
   7 C7            -1.2004     2.1412     0.2184 C.2     
   8 O8            -2.2592     1.5523     0.3192 O.2     
   9 N9            -1.1831     3.4859     0.1284 N.am    
  10 C10           -2.3770     4.1915     0.0336 C.ar    
  11 N11           -2.4031     5.5045     0.2377 N.ar    
  12 C12           -3.5328     6.1769     0.1483 C.ar    
  13 N13           -4.6730     5.5844    -0.1435 N.ar    
  14 C14           -4.7273     4.2780    -0.3604 C.ar    
  15 C15           -3.5661     3.5333    -0.2830 C.ar    
  16 C16            2.9284    -0.7391    -1.8009 C.3     
  17 C17            4.1783     0.0633    -2.0560 C.ar    
  18 C18            5.2999    -0.1403    -1.2745 C.ar    
  19 C19            6.4490     0.5937    -1.5044 C.ar    
  20 C20            6.4784     1.5356    -2.5195 C.ar    
  21 C21            5.3480     1.7405    -3.3075 C.ar    
  22 C22            4.2024     0.9976    -3.0752 C.ar    
  23 O23            7.4654     2.3766    -2.9457 O.3     
  24 C24            7.0636     2.8061    -4.2600 C.3     
  25 O25            5.6273     2.7097    -4.2271 O.3     
  26 F26            7.4624     4.1274    -4.4886 F       
  27 F27            7.5911     1.9559    -5.2377 F       
  28 H28            0.4501    -0.2342     1.3584 H       
  29 H29           -1.0530    -0.3848     0.4104 H       
  30 H30            0.8697    -1.7222    -0.5389 H       
  31 H31            0.2177    -0.5151    -1.6737 H       
  32 H32            2.9724     1.8167    -1.2873 H       
  33 H33            1.4195     1.5076    -2.1015 H       
  34 H34            1.0547     3.1623    -0.3397 H       
  35 H35            1.8408     2.1064     0.8634 H       
  36 H36           -0.3376     3.9612     0.1297 H       
  37 H37           -3.5240     7.2433     0.3192 H       
  38 H38           -5.6670     3.8020    -0.5985 H       
  39 H39           -3.5790     2.4679    -0.4592 H       
  40 H40            3.1992    -1.7160    -1.4006 H       
  41 H41            2.3823    -0.8680    -2.7354 H       
  42 H42            5.2787    -0.8740    -0.4823 H       
  43 H43            7.3239     0.4328    -0.8920 H       
  44 H44            3.3247     1.1541    -3.6848 H       
@<TRIPOS>BOND
   1    1    2 1
   2    1    6 1
   3    1    7 am
   4    2    3 1
   5    2   28 1
   6    2   29 1
   7    3    4 1
   8    3   30 1
   9    3   31 1
  10    4    5 1
  11    4   16 1
  12    5    6 1
  13    5   32 1
  14    5   33 1
  15    6   34 1
  16    6   35 1
  17    7    8 2
  18    7    9 am
  19    9   10 1
  20    9   36 1
  21   10   11 ar
  22   10   15 ar
  23   11   12 ar
  24   12   13 ar
  25   12   37 1
  26   13   14 ar
  27   14   15 ar
  28   14   38 1
  29   15   39 1
  30   16   17 1
  31   16   40 1
  32   16   41 1
  33   17   18 ar
  34   17   22 ar
  35   18   19 ar
  36   18   42 1
  37   19   20 ar
  38   19   43 1
  39   20   21 ar
  40   20   23 1
  41   21   22 ar
  42   21   25 1
  43   22   44 1
  44   23   24 1
  45   24   25 1
  46   24   26 1
  47   24   27 1

#	End of record

