#	Name: ASD03731872
#	Creating user name:	WinNT
#	Creation time:	15. 06. 2019 20:46

#	Modifying user name:	WinNT
#	Modification time:	15. 06. 2019 20:46

#	Program:	/corina/corina34_cracker 3.40 0067  02.08.2006

@<TRIPOS>MOLECULE
ASD03731872
  31   32    0    0    0
SMALL
NO_CHARGES


@<TRIPOS>ATOM
   1 C1            -0.4037     1.1006    -1.9501 C.2     
   2 C2            -0.2828    -0.2712    -1.4455 C.ar    
   3 C3             0.9029    -0.9947    -1.6478 C.ar    
   4 C4             1.0065    -2.2845    -1.1692 C.ar    
   5 C5            -0.0607    -2.8607    -0.4905 C.ar    
   6 C6            -1.2355    -2.1420    -0.2908 C.ar    
   7 C7            -1.3481    -0.8629    -0.7545 C.ar    
   8 O8             0.5223     1.6123    -2.5438 O.2     
   9 C9            -2.3867    -2.7767     0.4461 C.3     
  10 F10            1.9377    -0.4307    -2.3085 F       
  11 O11            0.0432    -4.1292    -0.0211 O.3     
  12 C12            1.2422    -4.7577    -0.1410 C.ar    
  13 C13            2.1945    -4.6344     0.8609 C.ar    
  14 C14            3.4124    -5.2738     0.7371 C.ar    
  15 C15            3.6834    -6.0372    -0.3850 C.ar    
  16 C16            2.7355    -6.1610    -1.3852 C.ar    
  17 C17            1.5136    -5.5279    -1.2624 C.ar    
  18 C18            4.4471    -5.1399     1.8245 C.3     
  19 F19            3.9469    -4.3258     2.8464 F       
  20 F20            4.7474    -6.4050     2.3409 F       
  21 F21            5.6075    -4.5646     1.2957 F       
  22 Cl22           5.2150    -6.8399    -0.5381 Cl      
  23 H23           -1.3187     1.6536    -1.7971 H       
  24 H24            1.9162    -2.8461    -1.3221 H       
  25 H25           -2.2606    -0.3084    -0.5923 H       
  26 H26           -2.2935    -2.5705     1.5123 H       
  27 H27           -3.3258    -2.3644     0.0770 H       
  28 H28           -2.3735    -3.8541     0.2818 H       
  29 H29            1.9835    -4.0385     1.7365 H       
  30 H30            2.9491    -6.7565    -2.2604 H       
  31 H31            0.7721    -5.6287    -2.0411 H       
@<TRIPOS>BOND
   1    1    2 1
   2    1    8 2
   3    1   23 1
   4    2    3 ar
   5    2    7 ar
   6    3    4 ar
   7    3   10 1
   8    4    5 ar
   9    4   24 1
  10    5    6 ar
  11    5   11 1
  12    6    7 ar
  13    6    9 1
  14    7   25 1
  15    9   26 1
  16    9   27 1
  17    9   28 1
  18   11   12 1
  19   12   13 ar
  20   12   17 ar
  21   13   14 ar
  22   13   29 1
  23   14   15 ar
  24   14   18 1
  25   15   16 ar
  26   15   22 1
  27   16   17 ar
  28   16   30 1
  29   17   31 1
  30   18   19 1
  31   18   20 1
  32   18   21 1

#	End of record

