#	Name: ASD01708057
#	Creating user name:	WinNT
#	Creation time:	15. 06. 2019 19:22

#	Modifying user name:	WinNT
#	Modification time:	15. 06. 2019 19:22

#	Program:	/corina/corina34_cracker 3.40 0067  02.08.2006

@<TRIPOS>MOLECULE
ASD01708057
  66   70    0    0    0
SMALL
NO_CHARGES


@<TRIPOS>ATOM
   1 C1            -0.0144     1.2124     0.0087 C.2     
   2 O2             0.0836    -0.0002     0.0181 O.2     
   3 C3             2.0114     3.9022    -1.2148 C.ar    
   4 C4             3.0045     3.0796    -1.7013 C.ar    
   5 C5             1.9161     5.2164    -1.6567 C.ar    
   6 C6             2.8125     5.7176    -2.5752 C.ar    
   7 C7             3.8286     4.8934    -3.0670 C.ar    
   8 C8             3.9167     3.5746    -2.6237 C.ar    
   9 Cl9            5.1757     2.5440    -3.2293 Cl      
  10 Cl10           2.6805     7.3612    -3.1184 Cl      
  11 C11            4.8008     5.4153    -4.0487 C.2     
  12 N12            4.5467     5.3134    -5.3684 N.am    
  13 O13            5.8303     5.9368    -3.6664 O.2     
  14 C14            5.5111     5.8310    -6.3421 C.3     
  15 C15            5.2682     7.3029    -6.5560 C.2     
  16 O16            6.0379     7.9926    -7.4125 O.3     
  17 O17            4.3806     7.8621    -5.9565 O.2     
  18 C18           -1.3412     1.8428     0.0597 C.2     
  19 C19            5.3442     5.0885    -7.6694 C.3     
  20 C20            5.7063     3.6376    -7.4823 C.ar    
  21 C21            4.7353     2.7246    -7.1150 C.ar    
  22 C22            3.1523     1.6406    -1.2812 C.3     
  23 C23            2.4384     1.3847     0.0451 C.3     
  24 N24            1.0938     1.9777    -0.0429 N.am    
  25 C25            1.0084     3.4344    -0.1895 C.3     
  26 C26           -2.5244     1.1802    -0.0117 C.2     
  27 C27           -3.5670     2.2019     0.0786 C.ar    
  28 C28           -2.8885     3.4292     0.2005 C.ar    
  29 O29           -1.5672     3.1667     0.1904 O.3     
  30 C30           -4.9632     2.1719     0.0665 C.ar    
  31 C31           -5.6667     3.3386     0.1734 C.ar    
  32 C32           -5.0029     4.5516     0.2938 C.ar    
  33 C33           -3.6255     4.6027     0.3078 C.ar    
  34 C34            7.0080     3.2188    -7.6833 C.ar    
  35 C35            7.3402     1.8878    -7.5117 C.ar    
  36 C36            6.3707     0.9761    -7.1386 C.ar    
  37 C37            5.0674     1.3940    -6.9434 C.ar    
  38 C38            8.7593     1.4309    -7.7318 C.3     
  39 C39            8.9103     0.9062    -9.1611 C.3     
  40 O40            9.0732     0.3884    -6.8062 O.3     
  41 H41            1.1303     5.8520    -1.2759 H       
  42 H42            3.7253     4.8973    -5.6734 H       
  43 H43            6.5232     5.6807    -5.9664 H       
  44 H44            5.8440     8.9343    -7.5164 H       
  45 H45            4.3086     5.1647    -8.0007 H       
  46 H46            5.9991     5.5326    -8.4191 H       
  47 H47            3.7173     3.0512    -6.9619 H       
  48 H48            2.7231     0.9972    -2.0492 H       
  49 H49            4.2110     1.4068    -1.1693 H       
  50 H50            2.3576     0.3117     0.2193 H       
  51 H51            2.9943     1.8503     0.8589 H       
  52 H52            1.2214     3.9084     0.7687 H       
  53 H53            0.0042     3.7081    -0.5133 H       
  54 H54           -2.6668     0.1146    -0.1148 H       
  55 H55           -5.4847     1.2308    -0.0274 H       
  56 H56           -6.7464     3.3168     0.1638 H       
  57 H57           -5.5720     5.4657     0.3775 H       
  58 H58           -3.1201     5.5524     0.4020 H       
  59 H59            7.7656     3.9312    -7.9749 H       
  60 H60            6.6302    -0.0637    -7.0048 H       
  61 H61            4.3098     0.6816    -6.6519 H       
  62 H62            9.4388     2.2693    -7.5789 H       
  63 H63            8.6709     1.7014    -9.8672 H       
  64 H64            9.9367     0.5758    -9.3204 H       
  65 H65            8.2308     0.0678    -9.3141 H       
  66 H66            8.5069    -0.3914    -6.8852 H       
@<TRIPOS>BOND
   1    1    2 2
   2    1   24 am
   3    1   18 1
   4    3    4 ar
   5    3    5 ar
   6    3   25 1
   7    4   22 1
   8    4    8 ar
   9    5    6 ar
  10    5   41 1
  11    6    7 ar
  12    6   10 1
  13    7    8 ar
  14    7   11 1
  15    8    9 1
  16   11   12 am
  17   11   13 2
  18   12   14 1
  19   12   42 1
  20   14   15 1
  21   14   19 1
  22   14   43 1
  23   15   16 1
  24   15   17 2
  25   16   44 1
  26   18   26 2
  27   18   29 1
  28   19   20 1
  29   19   45 1
  30   19   46 1
  31   20   21 ar
  32   20   34 ar
  33   21   37 ar
  34   21   47 1
  35   22   23 1
  36   22   48 1
  37   22   49 1
  38   23   24 1
  39   23   50 1
  40   23   51 1
  41   24   25 1
  42   25   52 1
  43   25   53 1
  44   26   27 1
  45   26   54 1
  46   27   28 ar
  47   27   30 ar
  48   28   29 1
  49   28   33 ar
  50   30   31 ar
  51   30   55 1
  52   31   32 ar
  53   31   56 1
  54   32   33 ar
  55   32   57 1
  56   33   58 1
  57   34   35 ar
  58   34   59 1
  59   35   36 ar
  60   35   38 1
  61   36   37 ar
  62   36   60 1
  63   37   61 1
  64   38   39 1
  65   38   40 1
  66   38   62 1
  67   39   63 1
  68   39   64 1
  69   39   65 1
  70   40   66 1

#	End of record

