#	Name: ASD04800005
#	Creating user name:	WinNT
#	Creation time:	15. 06. 2019 20:52

#	Modifying user name:	WinNT
#	Modification time:	15. 06. 2019 20:52

#	Program:	/corina/corina34_cracker 3.40 0067  02.08.2006

@<TRIPOS>MOLECULE
ASD04800005
  34   35    0    0    0
SMALL
NO_CHARGES


@<TRIPOS>ATOM
   1 C1            -0.1097     1.0500     0.2477 C.ar    
   2 C2            -0.0359    -0.3272     0.2009 C.ar    
   3 C3             1.1950    -0.9502     0.0039 C.ar    
   4 C4             2.3449    -0.1779    -0.1448 C.ar    
   5 C5             2.2596     1.1990    -0.0963 C.ar    
   6 C6             1.0354     1.8120     0.0995 C.ar    
   7 C7             1.2805    -2.4308    -0.0469 C.ar    
   8 C8             2.1207    -3.1131     0.8306 C.ar    
   9 C9             2.1965    -4.4902     0.7790 C.ar    
  10 C10            1.4406    -5.1930    -0.1419 C.ar    
  11 C11            0.6049    -4.5207    -1.0154 C.ar    
  12 C12            0.5167    -3.1441    -0.9683 C.ar    
  13 C13            3.6796    -0.8445    -0.3577 C.3     
  14 C14            3.7747    -1.3465    -1.7998 C.3     
  15 C15            3.8046    -0.1696    -2.7405 C.2     
  16 O16            3.7550     0.9554    -2.3024 O.2     
  17 O17            3.8864    -0.3709    -4.0651 O.3     
  18 C18            5.0346    -2.1561    -1.9679 C.2     
  19 O19            5.7800    -2.3152    -1.0304 O.2     
  20 O20            5.3287    -2.7004    -3.1591 O.3     
  21 H21           -1.0637     1.5340     0.3959 H       
  22 H22           -0.9304    -0.9211     0.3171 H       
  23 H23            3.1504     1.7986    -0.2111 H       
  24 H24            0.9731     2.8896     0.1364 H       
  25 H25            2.7119    -2.5653     1.5496 H       
  26 H26            2.8474    -5.0201     1.4587 H       
  27 H27            1.5035    -6.2705    -0.1793 H       
  28 H28            0.0169    -5.0743    -1.7324 H       
  29 H29           -0.1361    -2.6202    -1.6508 H       
  30 H30            4.4782    -0.1270    -0.1693 H       
  31 H31            3.7786    -1.6865     0.3274 H       
  32 H32            2.9095    -1.9700    -2.0253 H       
  33 H33            3.9026     0.4149    -4.6284 H       
  34 H34            6.1477    -3.2111    -3.2182 H       
@<TRIPOS>BOND
   1    1    2 ar
   2    1    6 ar
   3    1   21 1
   4    2    3 ar
   5    2   22 1
   6    3    4 ar
   7    3    7 1
   8    4    5 ar
   9    4   13 1
  10    5    6 ar
  11    5   23 1
  12    6   24 1
  13    7    8 ar
  14    7   12 ar
  15    8    9 ar
  16    8   25 1
  17    9   10 ar
  18    9   26 1
  19   10   11 ar
  20   10   27 1
  21   11   12 ar
  22   11   28 1
  23   12   29 1
  24   13   14 1
  25   13   30 1
  26   13   31 1
  27   14   15 1
  28   14   18 1
  29   14   32 1
  30   15   16 2
  31   15   17 1
  32   17   33 1
  33   18   19 2
  34   18   20 1
  35   20   34 1

#	End of record

