#	Name: ASD01881112
#	Creating user name:	WinNT
#	Creation time:	15. 06. 2019 19:42

#	Modifying user name:	WinNT
#	Modification time:	15. 06. 2019 19:42

#	Program:	/corina/corina34_cracker 3.40 0067  02.08.2006

@<TRIPOS>MOLECULE
ASD01881112
  51   54    0    0    0
SMALL
NO_CHARGES


@<TRIPOS>ATOM
   1 N1            -0.0158     1.3136     0.0093 N.ar    
   2 C2             0.0021    -0.0041     0.0020 C.ar    
   3 N3             1.1321    -0.6824    -0.0120 N.ar    
   4 C4             2.2981    -0.0570    -0.0197 C.ar    
   5 C5             2.3199     1.3290    -0.0130 C.ar    
   6 C6             1.1114     2.0071     0.0022 C.ar    
   7 C7             3.6262     2.0803    -0.0209 C.3     
   8 O8             4.0270     2.3245    -1.3706 O.3     
   9 C9             5.1917     2.9962    -1.5555 C.ar    
  10 C10            5.6405     3.2674    -2.8449 C.ar    
  11 C11            6.8181     3.9470    -3.0316 C.ar    
  12 C12            7.5732     4.3706    -1.9326 C.ar    
  13 C13            7.1182     4.0957    -0.6386 C.ar    
  14 C14            5.9315     3.4171    -0.4577 C.ar    
  15 C15            7.5697     4.3925    -4.2613 C.3     
  16 N16            8.7728     5.0804    -3.7790 N.am    
  17 C17            8.7703     5.0652    -2.4350 C.2     
  18 O18            9.6340     5.5557    -1.7336 O.2     
  19 C19            3.5851    -0.8409    -0.0352 C.3     
  20 Cl20           8.0425     4.6133     0.7367 Cl      
  21 C21            1.0812     3.5137     0.0096 C.3     
  22 C22            1.0571     4.0227    -1.4086 C.ar    
  23 C23           -0.1509     4.2320    -2.0473 C.ar    
  24 C24           -0.1730     4.6988    -3.3483 C.ar    
  25 C25            1.0127     4.9567    -4.0104 C.ar    
  26 C26            2.2206     4.7482    -3.3714 C.ar    
  27 C27            2.2427     4.2855    -2.0689 C.ar    
  28 C28            9.4460     7.1450    -4.9040 C.3     
  29 C29            9.8062     5.6847    -4.6234 C.3     
  30 H30           -0.9341    -0.5425     0.0081 H       
  31 H31            3.5022     3.0303     0.4989 H       
  32 H32            4.3894     1.4874     0.4831 H       
  33 H33            5.0626     2.9430    -3.6976 H       
  34 H34            5.5799     3.2051     0.5412 H       
  35 H35            7.8485     3.5280    -4.8638 H       
  36 H36            6.9566     5.0767    -4.8479 H       
  37 H37            3.8860    -1.0251    -1.0666 H       
  38 H38            4.3631    -0.2722     0.4741 H       
  39 H39            3.4372    -1.7924     0.4755 H       
  40 H40            0.1893     3.8567     0.5340 H       
  41 H41            1.9688     3.8925     0.5165 H       
  42 H42           -1.0773     4.0305    -1.5301 H       
  43 H43           -1.1168     4.8617    -3.8476 H       
  44 H44            0.9954     5.3207    -5.0271 H       
  45 H45            3.1471     4.9493    -3.8888 H       
  46 H46            3.1864     4.1226    -1.5696 H       
  47 H47           10.2149     7.5946    -5.5322 H       
  48 H48            8.4853     7.1901    -5.4170 H       
  49 H49            9.3811     7.6905    -3.9626 H       
  50 H50           10.7669     5.6396    -4.1103 H       
  51 H51            9.8711     5.1391    -5.5648 H       
@<TRIPOS>BOND
   1    1    2 ar
   2    1    6 ar
   3    2    3 ar
   4    2   30 1
   5    3    4 ar
   6    4    5 ar
   7    4   19 1
   8    5    6 ar
   9    5    7 1
  10    6   21 1
  11    7    8 1
  12    7   31 1
  13    7   32 1
  14    8    9 1
  15    9   10 ar
  16    9   14 ar
  17   10   11 ar
  18   10   33 1
  19   11   12 ar
  20   11   15 1
  21   12   13 ar
  22   12   17 1
  23   13   14 ar
  24   13   20 1
  25   14   34 1
  26   15   16 1
  27   15   35 1
  28   15   36 1
  29   16   17 am
  30   16   29 1
  31   17   18 2
  32   19   37 1
  33   19   38 1
  34   19   39 1
  35   21   22 1
  36   21   40 1
  37   21   41 1
  38   22   23 ar
  39   22   27 ar
  40   23   24 ar
  41   23   42 1
  42   24   25 ar
  43   24   43 1
  44   25   26 ar
  45   25   44 1
  46   26   27 ar
  47   26   45 1
  48   27   46 1
  49   28   29 1
  50   28   47 1
  51   28   48 1
  52   28   49 1
  53   29   50 1
  54   29   51 1

#	End of record

