#	Name: ASD07300212
#	Creating user name:	WinNT
#	Creation time:	15. 06. 2019 21:09

#	Modifying user name:	WinNT
#	Modification time:	15. 06. 2019 21:09

#	Program:	/corina/corina34_cracker 3.40 0067  02.08.2006

@<TRIPOS>MOLECULE
ASD07300212
  50   54    0    0    0
SMALL
NO_CHARGES


@<TRIPOS>ATOM
   1 C1            -0.7209     1.0446    -0.0622 C.ar    
   2 C2            -0.8532    -0.3327    -0.2643 C.ar    
   3 C3             0.2531    -1.1530    -0.1014 C.ar    
   4 C4             1.4576    -0.5665     0.2592 C.ar    
   5 C5             1.5162     0.8022     0.4427 C.ar    
   6 N6             0.4483     1.5594     0.2810 N.ar    
   7 C7            -2.8297     0.6137    -0.6107 C.2     
   8 N8            -1.9746     1.6016    -0.2873 N.am    
   9 N9            -2.1808    -0.5664    -0.6102 N.am    
  10 O10           -4.0092     0.7645    -0.8687 O.2     
  11 C11           -2.7723    -1.8719    -0.9131 C.3     
  12 C12           -3.3109    -2.4989     0.3744 C.3     
  13 C13           -2.2948     2.9640    -0.1928 C.ar    
  14 C14           -3.5915     3.3917    -0.4441 C.ar    
  15 C15           -3.9062     4.7328    -0.3510 C.ar    
  16 C16           -2.9266     5.6532    -0.0068 C.ar    
  17 C17           -1.6304     5.2264     0.2439 C.ar    
  18 C18           -1.3163     3.8846     0.1575 C.ar    
  19 O19           -3.2368     6.9738     0.0843 O.3     
  20 C20           -3.9124     7.3932     1.1779 C.2     
  21 N21           -4.2394     6.6395     2.1931 N.2     
  22 C22           -4.9112     7.3775     3.1177 C.ar    
  23 C23           -4.9980     8.6877     2.6202 C.ar    
  24 N24           -4.3520     8.6761     1.3899 N.am    
  25 C25           -5.4739     7.0755     4.3593 C.ar    
  26 C26           -6.1069     8.0628     5.0822 C.ar    
  27 C27           -6.1899     9.3544     4.5858 C.ar    
  28 C28           -5.6376     9.6685     3.3600 C.ar    
  29 C29           -4.1900     9.7258     0.5602 C.2     
  30 O30           -4.6280    10.8137     0.8665 O.2     
  31 C31           -3.4642     9.5469    -0.7484 C.3     
  32 H32            0.1789    -2.2201    -0.2508 H       
  33 H33            2.3405    -1.1733     0.3956 H       
  34 H34            2.4532     1.2600     0.7234 H       
  35 H35           -3.5885    -1.7448    -1.6243 H       
  36 H36           -2.0127    -2.5238    -1.3445 H       
  37 H37           -2.4947    -2.6260     1.0857 H       
  38 H38           -4.0705    -1.8470     0.8059 H       
  39 H39           -3.7510    -3.4703     0.1491 H       
  40 H40           -4.3539     2.6754    -0.7126 H       
  41 H41           -4.9149     5.0656    -0.5464 H       
  42 H42           -0.8681     5.9432     0.5111 H       
  43 H43           -0.3086     3.5518     0.3578 H       
  44 H44           -5.4134     6.0711     4.7516 H       
  45 H45           -6.5420     7.8287     6.0426 H       
  46 H46           -6.6890    10.1197     5.1616 H       
  47 H47           -5.7048    10.6767     2.9785 H       
  48 H48           -4.1785     9.2758    -1.5259 H       
  49 H49           -2.9686    10.4791    -1.0193 H       
  50 H50           -2.7207     8.7564    -0.6464 H       
@<TRIPOS>BOND
   1    1    2 ar
   2    1    6 ar
   3    1    8 1
   4    2    3 ar
   5    2    9 1
   6    3    4 ar
   7    3   32 1
   8    4    5 ar
   9    4   33 1
  10    5    6 ar
  11    5   34 1
  12    7    8 am
  13    7    9 am
  14    7   10 2
  15    8   13 1
  16    9   11 1
  17   11   12 1
  18   11   35 1
  19   11   36 1
  20   12   37 1
  21   12   38 1
  22   12   39 1
  23   13   14 ar
  24   13   18 ar
  25   14   15 ar
  26   14   40 1
  27   15   16 ar
  28   15   41 1
  29   16   17 ar
  30   16   19 1
  31   17   18 ar
  32   17   42 1
  33   18   43 1
  34   19   20 1
  35   20   21 2
  36   20   24 1
  37   21   22 1
  38   22   23 ar
  39   22   25 ar
  40   23   24 1
  41   23   28 ar
  42   24   29 am
  43   25   26 ar
  44   25   44 1
  45   26   27 ar
  46   26   45 1
  47   27   28 ar
  48   27   46 1
  49   28   47 1
  50   29   30 2
  51   29   31 1
  52   31   48 1
  53   31   49 1
  54   31   50 1

#	End of record

