#	Name: ASD01028326
#	Creating user name:	WinNT
#	Creation time:	15. 06. 2019 18:56

#	Modifying user name:	WinNT
#	Modification time:	15. 06. 2019 18:56

#	Program:	/corina/corina34_cracker 3.40 0067  02.08.2006

@<TRIPOS>MOLECULE
ASD01028326
  43   47    0    0    0
SMALL
NO_CHARGES


@<TRIPOS>ATOM
   1 C1            -0.0171     1.4117     0.0098 C.ar    
   2 C2             0.0021    -0.0041     0.0020 C.ar    
   3 C3             1.2116     2.1113     0.0018 C.ar    
   4 C4             2.3796     1.3711    -0.0134 C.ar    
   5 C5             2.3158    -0.0176    -0.0203 C.ar    
   6 N6             1.1705    -0.6568    -0.0123 N.ar    
   7 O7             1.2437     3.4668     0.0084 O.3     
   8 C8             2.5319     4.0853    -0.0005 C.3     
   9 C9             2.3699     5.5835     0.0086 C.2     
  10 N10            2.2944     6.3706     1.1040 N.pl3   
  11 C11            2.1517     7.6562     0.6381 C.2     
  12 N12            2.1479     7.5863    -0.6830 N.2     
  13 N13            2.2826     6.3579    -1.0441 N.2     
  14 N14            2.3324     6.1240     2.4778 N.2     
  15 C15            2.2326     7.1149     3.3360 C.2     
  16 C16            2.0848     8.4452     2.8891 C.2     
  17 C17            2.0457     8.7166     1.5579 C.2     
  18 C18            2.2753     6.8312     4.7916 C.ar    
  19 C19            2.4204     5.5214     5.2448 C.ar    
  20 C20            2.4600     5.2633     6.6000 C.ar    
  21 C21            2.3555     6.3017     7.5078 C.ar    
  22 C22            2.2112     7.6037     7.0636 C.ar    
  23 C23            2.1762     7.8740     5.7106 C.ar    
  24 C24           -1.2138    -0.7058     0.0100 C.ar    
  25 C25           -2.4076    -0.0036     0.0252 C.ar    
  26 C26           -2.4096     1.4023     0.0322 C.ar    
  27 C27           -1.2420     2.0973     0.0310 C.ar    
  28 C28           -3.6501    -0.7154     0.0333 C.1     
  29 N29           -4.6358    -1.2801     0.0398 N.1     
  30 H30            3.3375     1.8698    -0.0202 H       
  31 H31            3.2343    -0.5856    -0.0321 H       
  32 H32            3.0902     3.7748     0.8827 H       
  33 H33            3.0735     3.7838    -0.8972 H       
  34 H34            2.0032     9.2489     3.6059 H       
  35 H35            1.9328     9.7329     1.2102 H       
  36 H36            2.5015     4.7098     4.5369 H       
  37 H37            2.5725     4.2486     6.9523 H       
  38 H38            2.3862     6.0951     8.5674 H       
  39 H39            2.1297     8.4106     7.7768 H       
  40 H40            2.0635     8.8910     5.3648 H       
  41 H41           -1.2184    -1.7858     0.0039 H       
  42 H42           -3.3488     1.9354     0.0437 H       
  43 H43           -1.2564     3.1772     0.0368 H       
@<TRIPOS>BOND
   1    1    2 ar
   2    1    3 ar
   3    1   27 ar
   4    2   24 ar
   5    2    6 ar
   6    3    4 ar
   7    3    7 1
   8    4    5 ar
   9    4   30 1
  10    5    6 ar
  11    5   31 1
  12    7    8 1
  13    8    9 1
  14    8   32 1
  15    8   33 1
  16    9   10 1
  17    9   13 2
  18   10   11 1
  19   10   14 1
  20   11   12 2
  21   11   17 1
  22   12   13 1
  23   14   15 2
  24   15   16 1
  25   15   18 1
  26   16   17 2
  27   16   34 1
  28   17   35 1
  29   18   19 ar
  30   18   23 ar
  31   19   20 ar
  32   19   36 1
  33   20   21 ar
  34   20   37 1
  35   21   22 ar
  36   21   38 1
  37   22   23 ar
  38   22   39 1
  39   23   40 1
  40   24   25 ar
  41   24   41 1
  42   25   26 ar
  43   25   28 1
  44   26   27 ar
  45   26   42 1
  46   27   43 1
  47   28   29 3

#	End of record

