#	Name: ASD01917816
#	Creating user name:	WinNT
#	Creation time:	15. 06. 2019 20:10

#	Modifying user name:	WinNT
#	Modification time:	15. 06. 2019 20:10

#	Program:	/corina/corina34_cracker 3.40 0067  02.08.2006

@<TRIPOS>MOLECULE
ASD01917816
  41   44    0    0    0
SMALL
NO_CHARGES


@<TRIPOS>ATOM
   1 N1             4.8222    -0.4108    -2.1393 N.ar    
   2 C2             5.2891     0.2864    -3.1565 C.ar    
   3 C3             5.1763     1.6662    -3.1833 C.ar    
   4 C4             4.5621     2.3154    -2.1216 C.ar    
   5 C5             4.0815     1.5472    -1.0665 C.ar    
   6 C6             4.2326     0.1683    -1.1125 C.ar    
   7 F7             5.6587     2.3716    -4.2296 F       
   8 O8             3.4731     2.1385    -0.0050 O.3     
   9 C9             3.4533     3.4977     0.0440 C.2     
  10 N10            2.2023     5.5114    -0.0226 N.pl3   
  11 C11            2.2712     4.1516    -0.0660 C.2     
  12 C12            4.6554     4.1991     0.2133 C.2     
  13 C13            4.6319     5.5870     0.2629 C.2     
  14 C14            3.3401     6.2638     0.1351 C.2     
  15 C15            5.8738     6.3574     0.4400 C.2     
  16 N16            5.8309     7.7037     0.4858 N.am    
  17 C17            6.9887     8.4286     0.7586 C.ar    
  18 N18            8.1481     7.7967     0.8644 N.ar    
  19 C19            6.9166     9.8074     0.9112 C.ar    
  20 C20            8.0738    10.5194     1.1823 C.ar    
  21 C21            9.2680     9.8255     1.2920 C.ar    
  22 C22            9.2704     8.4477     1.1225 C.ar    
  23 O23            6.9386     5.7790     0.5450 O.2     
  24 C24            1.1777     6.4046    -0.1061 C.2     
  25 N25            1.6926     7.6026    -0.0099 N.2     
  26 N26            2.9689     7.5287     0.1388 N.2     
  27 O27           10.4363     7.7612     1.2231 O.3     
  28 C28           10.3736     6.3455     1.0392 C.3     
  29 H29            5.7660    -0.2254    -3.9794 H       
  30 H30            4.4602     3.3905    -2.1148 H       
  31 H31            3.8628    -0.4369    -0.2981 H       
  32 H32            1.3627     3.5812    -0.1915 H       
  33 H33            5.5901     3.6657     0.3045 H       
  34 H34            4.9938     8.1679     0.3288 H       
  35 H35            5.9696    10.3184     0.8192 H       
  36 H36            8.0456    11.5920     1.3051 H       
  37 H37           10.1876    10.3513     1.5027 H       
  38 H38            0.1320     6.1672    -0.2344 H       
  39 H39            9.7121     5.9107     1.7886 H       
  40 H40            9.9890     6.1251     0.0434 H       
  41 H41           11.3718     5.9207     1.1454 H       
@<TRIPOS>BOND
   1    1    2 ar
   2    1    6 ar
   3    2    3 ar
   4    2   29 1
   5    3    4 ar
   6    3    7 1
   7    4    5 ar
   8    4   30 1
   9    5    6 ar
  10    5    8 1
  11    6   31 1
  12    8    9 1
  13    9   12 1
  14    9   11 2
  15   10   11 1
  16   10   24 1
  17   10   14 1
  18   11   32 1
  19   12   13 2
  20   12   33 1
  21   13   14 1
  22   13   15 1
  23   14   26 2
  24   15   16 am
  25   15   23 2
  26   16   17 1
  27   16   34 1
  28   17   19 ar
  29   17   18 ar
  30   18   22 ar
  31   19   20 ar
  32   19   35 1
  33   20   21 ar
  34   20   36 1
  35   21   22 ar
  36   21   37 1
  37   22   27 1
  38   24   25 2
  39   24   38 1
  40   25   26 1
  41   27   28 1
  42   28   39 1
  43   28   40 1
  44   28   41 1

#	End of record

