#	Name: ASD06600050
#	Creating user name:	WinNT
#	Creation time:	15. 06. 2019 21:07

#	Modifying user name:	WinNT
#	Modification time:	15. 06. 2019 21:07

#	Program:	/corina/corina34_cracker 3.40 0067  02.08.2006

@<TRIPOS>MOLECULE
ASD06600050
 300  303    0    0    0
SMALL
NO_CHARGES


@<TRIPOS>ATOM
   1 C1            -0.8717    10.0204     6.6116 C.2     
   2 O2            -0.6686     8.8821     6.9775 O.2     
   3 N3             1.4140    10.4413     7.3099 N.am    
   4 C4             0.2176    11.0553     6.7287 C.3     
   5 C5             0.5499    11.6054     5.3403 C.3     
   6 C6             1.5499    12.7254     5.4698 C.2     
   7 C7             2.7401    12.7999     4.8442 C.2     
   8 N8             3.3232    13.9730     5.2409 N.pl3   
   9 C9             2.4685    14.5749     6.0957 C.2     
  10 N10            1.4079    13.8254     6.2239 N.2     
  11 C11           -4.0774     9.7486     4.8759 C.2     
  12 O12           -3.8906    10.7725     4.2534 O.2     
  13 N13           -2.0697    10.3586     6.0950 N.am    
  14 C14           -3.1266     9.3512     5.9755 C.3     
  15 C15           -3.8891     9.2526     7.2983 C.3     
  16 C16           -7.4080     8.7282     3.7672 C.2     
  17 O17           -7.5370     7.8944     4.6385 O.2     
  18 N18           -5.1354     8.9662     4.5844 N.am    
  19 C19           -6.0597     9.3525     3.5155 C.3     
  20 C20           -5.5158     8.8666     2.1705 C.3     
  21 C21           -4.2084     9.5963     1.8554 C.3     
  22 C22           -5.2553     7.3605     2.2398 C.3     
  23 C23          -10.5682     8.5373     1.9398 C.2     
  24 O24          -10.1122     9.1204     0.9791 O.2     
  25 N25           -8.4704     9.0963     3.0242 N.am    
  26 C26           -9.7598     8.4253     3.2067 C.3     
  27 C27          -10.5207     9.0869     4.3574 C.3     
  28 C28           -9.7714     8.8682     5.6465 C.2     
  29 C29           -9.3640     9.8288     6.4978 C.2     
  30 N30           -8.7276     9.1974     7.5323 N.pl3   
  31 C31           -8.7684     7.8719     7.2769 C.2     
  32 N32           -9.3986     7.6822     6.1500 N.2     
  33 C33          -14.0506     7.9903     0.9717 C.2     
  34 O34          -14.4045     7.8372     2.1216 O.2     
  35 N35          -11.7980     7.9897     1.8745 N.am    
  36 C36          -12.5839     8.0986     0.6429 C.3     
  37 C37          -12.1911     6.9714    -0.3141 C.3     
  38 C38          -17.1450     7.4609    -0.9010 C.2     
  39 O39          -16.5476     7.2182    -1.9282 O.2     
  40 N40          -14.9689     8.0636    -0.0120 N.am    
  41 C41          -16.3947     7.9583     0.3076 C.3     
  42 C42          -16.9302     9.3339     0.7098 C.3     
  43 C43          -16.2667     9.7771     1.9882 C.ar    
  44 C44          -15.0918    10.5045     1.9399 C.ar    
  45 C45          -14.4814    10.9115     3.1104 C.ar    
  46 C46          -15.0485    10.5903     4.3351 C.ar    
  47 O47          -14.4502    10.9900     5.4880 O.3     
  48 C48          -16.2277     9.8609     4.3809 C.ar    
  49 C49          -16.8369     9.4606     3.2074 C.ar    
  50 C50          -20.6447     7.2546    -1.9368 C.2     
  51 O51          -21.0212     7.9160    -0.9925 O.2     
  52 N52          -18.4800     7.2856    -0.8404 N.am    
  53 C53          -19.2094     6.8021    -2.0153 C.3     
  54 C54          -19.1580     5.2734    -2.0539 C.3     
  55 C55          -17.7122     4.8167    -2.2588 C.3     
  56 C56          -17.6609     3.2881    -2.2975 C.3     
  57 N57          -16.2765     2.8508    -2.4937 N.pl3   
  58 C58          -15.9823     1.5095    -2.5613 C.2     
  59 N59          -16.9351     0.6270    -2.4508 N.2     
  60 N60          -14.6831     1.0992    -2.7454 N.pl3   
  61 C61          -23.7724     6.4248    -3.6373 C.2     
  62 O62          -23.2741     5.4805    -4.2126 O.2     
  63 N63          -21.5099     6.9245    -2.9161 N.am    
  64 C64          -22.9052     7.3644    -2.8398 C.3     
  65 C65          -23.0259     8.7786    -3.4111 C.3     
  66 C66          -22.2569     9.7392    -2.5411 C.2     
  67 C67          -21.2877    10.5783    -2.9534 C.2     
  68 N68          -20.8617    11.2649    -1.8486 N.pl3   
  69 C69          -21.5860    10.8212    -0.7987 C.2     
  70 N70          -22.4219     9.9124    -1.2213 N.2     
  71 C71          -27.1924     6.4411    -4.9284 C.2     
  72 O72          -27.3605     7.6034    -4.6257 O.2     
  73 N73          -25.1019     6.6337    -3.7110 N.am    
  74 C74          -25.9450     5.7202    -4.4863 C.3     
  75 C75          -26.3298     4.5206    -3.6180 C.3     
  76 C76          -25.0743     3.7175    -3.2723 C.3     
  77 C77          -25.4591     2.5180    -2.4041 C.3     
  78 N78          -24.2569     1.7490    -2.0731 N.pl3   
  79 C79          -24.3558     0.6190    -1.2963 C.2     
  80 N80          -25.5193     0.2319    -0.8542 N.2     
  81 N81          -23.2276    -0.1026    -0.9856 N.pl3   
  82 C82          -30.4364     5.4944    -6.3224 C.2     
  83 O83          -30.2297     4.3123    -6.1464 O.2     
  84 N84          -28.1210     5.7941    -5.6601 N.am    
  85 C85          -29.3337     6.4949    -6.0899 C.3     
  86 C86          -29.0512     7.2535    -7.3882 C.3     
  87 C87          -28.0209     8.3530    -7.1227 C.3     
  88 C88          -27.7385     9.1116    -8.4210 C.3     
  89 N89          -26.7520    10.1643    -8.1667 N.pl3   
  90 C90          -26.3394    10.9820    -9.1921 C.2     
  91 N91          -26.8260    10.8205   -10.3905 N.2     
  92 N92          -25.4136    11.9700    -8.9535 N.pl3   
  93 C93          -33.7181     5.5072    -7.9328 C.2     
  94 O94          -33.5477     6.6145    -8.3973 O.2     
  95 N95          -31.6522     5.9131    -6.7259 N.am    
  96 C96          -32.7242     4.9405    -6.9519 C.3     
  97 C97          -33.4289     4.6412    -5.6273 C.3     
  98 C98          -32.4510     3.9515    -4.6738 C.3     
  99 C99          -33.1159     3.7645    -3.3086 C.3     
 100 C100         -32.0615     2.5857    -5.2428 C.3     
 101 C101         -37.0896     4.7474    -9.0863 C.2     
 102 O102         -37.2464     3.7712    -8.3840 O.2     
 103 N103         -34.7962     4.7835    -8.2938 N.am    
 104 C104         -35.7034     5.2868    -9.3281 C.3     
 105 C105         -35.2116     4.8313   -10.7035 C.3     
 106 C106         -36.0611     5.4894   -11.7926 C.3     
 107 C107         -35.8123     6.9990   -11.7909 C.3     
 108 C108         -35.6791     4.9110   -13.1565 C.3     
 109 C109         -40.4394     5.2445   -10.4628 C.2     
 110 O110         -40.0126     5.8198   -11.4414 O.2     
 111 N111         -38.1550     5.3498    -9.6506 N.am    
 112 C112         -39.5096     4.8930    -9.3301 C.3     
 113 C113         -39.9879     5.5758    -8.0471 C.3     
 114 C114         -39.0439     5.2190    -6.8972 C.3     
 115 C115         -39.9955     7.0924    -8.2489 C.3     
 116 C116         -43.1399     6.6753   -11.3161 C.2     
 117 O117         -42.7723     7.3306   -10.3699 O.2     
 118 N118         -41.7453     4.9194   -10.3883 N.am    
 119 C119         -42.6491     5.2610   -11.4895 C.3     
 120 C120         -43.8422     4.3032   -11.4858 C.3     
 121 C121         -44.7214     4.5791   -12.7072 C.3     
 122 C122         -45.8445     3.5420   -12.7719 C.3     
 123 C123         -44.6608     4.5129   -10.2103 C.3     
 124 O124         -43.9853     7.2070   -12.2130 O.3     
 125 C125           2.3103    11.2028     7.9680 C.2     
 126 O126           2.1264    12.3964     8.0791 O.2     
 127 C127          18.1962    13.6180    17.6114 C.3     
 128 C128          16.9466    14.2592    17.0045 C.3     
 129 C129          16.1026    13.1827    16.3192 C.3     
 130 C130          14.8530    13.8240    15.7123 C.3     
 131 C131          14.0090    12.7475    15.0270 C.3     
 132 C132          12.7595    13.3887    14.4200 C.3     
 133 C133          11.9154    12.3122    13.7348 C.3     
 134 C134          10.6659    12.9535    13.1278 C.3     
 135 C135           9.8218    11.8770    12.4425 C.3     
 136 C136           8.5723    12.5182    11.8356 C.3     
 137 C137           7.7282    11.4417    11.1503 C.3     
 138 C138           6.4787    12.0830    10.5433 C.3     
 139 C139           5.6346    11.0065     9.8581 C.3     
 140 C140           4.3851    11.6477     9.2511 C.3     
 141 C141           3.5410    10.5712     8.5658 C.3     
 142 H142           1.5611     9.4866     7.2211 H       
 143 H143          -0.1215    11.8686     7.3702 H       
 144 H144           0.9724    10.8103     4.7260 H       
 145 H145          -0.3592    11.9824     4.8717 H       
 146 H146           3.1549    12.0735     4.1611 H       
 147 H147           4.1888    14.3091     4.9604 H       
 148 H148           2.6335    15.5218     6.5883 H       
 149 H149          -2.2322    11.2690     5.8023 H       
 150 H150          -2.6820     8.3843     5.7395 H       
 151 H151          -4.6755     8.5030     7.2094 H       
 152 H152          -3.2014     8.9651     8.0936 H       
 153 H153          -4.3338    10.2194     7.5342 H       
 154 H154          -5.2848     8.1472     5.0823 H       
 155 H155          -6.1597    10.4377     3.4963 H       
 156 H156          -6.2452     9.0735     1.3874 H       
 157 H157          -3.4790     9.3893     2.6385 H       
 158 H158          -3.8209     9.2501     0.8972 H       
 159 H159          -4.3940    10.6692     1.8060 H       
 160 H160          -6.1999     6.8344     2.3783 H       
 161 H161          -4.7877     7.0296     1.3125 H       
 162 H162          -4.5928     7.1445     3.0780 H       
 163 H163          -8.3813     9.8056     2.3685 H       
 164 H164          -9.5924     7.3736     3.4390 H       
 165 H165         -10.6105    10.1562     4.1663 H       
 166 H166         -11.5150     8.6471     4.4360 H       
 167 H167          -9.5107    10.8929     6.3857 H       
 168 H168          -8.3230     9.6226     8.3045 H       
 169 H169          -8.3522     7.0971     7.9036 H       
 170 H170         -12.1627     7.5234     2.6429 H       
 171 H171         -12.3875     9.0612     0.1706 H       
 172 H172         -12.3874     6.0088     0.1582 H       
 173 H173         -12.7758     7.0524    -1.2304 H       
 174 H174         -11.1303     7.0497    -0.5519 H       
 175 H175         -14.6858     8.1861    -0.9317 H       
 176 H176         -16.5314     7.2597     1.1330 H       
 177 H177         -16.7138    10.0532    -0.0802 H       
 178 H178         -18.0079     9.2742     0.8615 H       
 179 H179         -14.6507    10.7543     0.9862 H       
 180 H180         -13.5633    11.4790     3.0721 H       
 181 H181         -14.7424    11.8563     5.8030 H       
 182 H182         -16.6709     9.6093     5.3330 H       
 183 H183         -17.7572     8.8965     3.2424 H       
 184 H184         -18.9578     7.4797    -0.0188 H       
 185 H185         -18.7505     7.2040    -2.9186 H       
 186 H186         -19.5355     4.8733    -1.1129 H       
 187 H187         -19.7739     4.9099    -2.8765 H       
 188 H188         -17.3347     5.2169    -3.1998 H       
 189 H189         -17.0963     5.1803    -1.4363 H       
 190 H190         -18.0384     2.8880    -1.3565 H       
 191 H191         -18.2768     2.9245    -3.1200 H       
 192 H192         -15.5674     3.5076    -2.5759 H       
 193 H193         -16.7275    -0.3194    -2.4985 H       
 194 H194         -13.9741     1.7560    -2.8277 H       
 195 H195         -14.4756     0.1528    -2.7931 H       
 196 H196         -21.2087     6.3955    -3.6713 H       
 197 H197         -23.2299     7.3639    -1.7993 H       
 198 H198         -22.6187     8.7981    -4.4219 H       
 199 H199         -24.0755     9.0718    -3.4365 H       
 200 H200         -20.9173    10.6881    -3.9620 H       
 201 H201         -20.1690    11.9435    -1.8242 H       
 202 H202         -21.4920    11.1645     0.2209 H       
 203 H203         -25.5004     7.3888    -3.2509 H       
 204 H204         -25.3959     5.3738    -5.3618 H       
 205 H205         -26.8002     4.8726    -2.6999 H       
 206 H206         -27.0281     3.8862    -4.1638 H       
 207 H207         -24.6039     3.3655    -4.1905 H       
 208 H208         -24.3760     4.3520    -2.7265 H       
 209 H209         -25.9294     2.8700    -1.4860 H       
 210 H210         -26.1574     1.8835    -2.9499 H       
 211 H211         -23.3910     2.0371    -2.4021 H       
 212 H212         -25.5891    -0.5654    -0.3061 H       
 213 H213         -22.3618     0.1855    -1.3146 H       
 214 H214         -23.2974    -0.8999    -0.4376 H       
 215 H215         -27.9866     4.8645    -5.9022 H       
 216 H216         -29.6395     7.1995    -5.3165 H       
 217 H217         -28.6608     6.5624    -8.1352 H       
 218 H218         -29.9745     7.7017    -7.7553 H       
 219 H219         -28.4114     9.0441    -6.3757 H       
 220 H220         -27.0977     7.9047    -6.7556 H       
 221 H221         -27.3480     8.4205    -9.1680 H       
 222 H222         -28.6618     9.5598    -8.7881 H       
 223 H223         -26.3898    10.2845    -7.2749 H       
 224 H224         -26.5349    11.3974   -11.1140 H       
 225 H225         -25.0515    12.0901    -8.0617 H       
 226 H226         -25.1225    12.5468    -9.6770 H       
 227 H227         -31.8175     6.8585    -6.8666 H       
 228 H228         -32.3008     4.0202    -7.3543 H       
 229 H229         -33.7749     5.5735    -5.1810 H       
 230 H230         -34.2815     3.9869    -5.8090 H       
 231 H231         -31.5580     4.5665    -4.5618 H       
 232 H232         -34.0089     3.1495    -3.4207 H       
 233 H233         -32.4193     3.2732    -2.6294 H       
 234 H234         -33.3934     4.7375    -2.9033 H       
 235 H235         -31.5878     2.7189    -6.2154 H       
 236 H236         -31.3649     2.0943    -4.5636 H       
 237 H237         -32.9545     1.9707    -5.3548 H       
 238 H238         -34.9715     3.9294    -7.8688 H       
 239 H239         -35.7261     6.3760    -9.2928 H       
 240 H240         -34.1688     5.1218   -10.8310 H       
 241 H241         -35.2988     3.7475   -10.7799 H       
 242 H242         -37.1158     5.2948   -11.5979 H       
 243 H243         -36.3437     7.4557   -12.6259 H       
 244 H244         -36.1719     7.4255   -10.8545 H       
 245 H245         -34.7441     7.1913   -11.8913 H       
 246 H246         -35.8563     3.8355   -13.1577 H       
 247 H247         -36.2843     5.3798   -13.9324 H       
 248 H248         -34.6244     5.1056   -13.3512 H       
 249 H249         -38.0250     6.0858   -10.2689 H       
 250 H250         -39.5042     3.8125    -9.1864 H       
 251 H251         -40.9957     5.2359    -7.8087 H       
 252 H252         -38.0361     5.5588    -7.1356 H       
 253 H253         -39.3846     5.7054    -5.9832 H       
 254 H254         -39.0385     4.1385    -6.7534 H       
 255 H255         -40.6680     7.3466    -9.0682 H       
 256 H256         -40.3362     7.5788    -7.3349 H       
 257 H257         -38.9876     7.4323    -8.4873 H       
 258 H258         -42.0866     4.4592    -9.6056 H       
 259 H259         -42.1167     5.1747   -12.4367 H       
 260 H260         -43.4826     3.2748   -11.5218 H       
 261 H261         -45.1525     5.5770   -12.6266 H       
 262 H262         -44.1166     4.5166   -13.6119 H       
 263 H263         -46.4709     3.7386   -13.6420 H       
 264 H264         -45.4134     2.5442   -12.8525 H       
 265 H265         -46.4493     3.6046   -11.8672 H       
 266 H266         -45.0203     5.5413   -10.1744 H       
 267 H267         -45.5107     3.8305   -10.2078 H       
 268 H268         -44.0344     4.3164    -9.3402 H       
 269 H269         -44.2725     8.1176   -12.0595 H       
 270 H270          18.7975    14.3849    18.0996 H       
 271 H271          17.8999    12.8674    18.3442 H       
 272 H272          18.7813    13.1448    16.8229 H       
 273 H273          16.3615    14.7324    17.7931 H       
 274 H274          17.2429    15.0098    16.2717 H       
 275 H275          16.6877    12.7096    15.5306 H       
 276 H276          15.8063    12.4322    17.0520 H       
 277 H277          14.2679    14.2972    16.5008 H       
 278 H278          15.1493    14.5746    14.9795 H       
 279 H279          14.5941    12.2743    14.2384 H       
 280 H280          13.7127    11.9969    15.7598 H       
 281 H281          12.1743    13.8619    15.2086 H       
 282 H282          13.0557    14.1393    13.6872 H       
 283 H283          12.5005    11.8391    12.9462 H       
 284 H284          11.6191    11.5616    14.4675 H       
 285 H285          10.0808    13.4267    13.9164 H       
 286 H286          10.9621    13.7041    12.3950 H       
 287 H287          10.4069    11.4038    11.6539 H       
 288 H288           9.5256    11.1264    13.1753 H       
 289 H289           7.9872    12.9914    12.6241 H       
 290 H290           8.8685    13.2688    11.1028 H       
 291 H291           8.3133    10.9685    10.3617 H       
 292 H292           7.4320    10.6911    11.8831 H       
 293 H293           5.8936    12.5561    11.3319 H       
 294 H294           6.7749    12.8336     9.8106 H       
 295 H295           6.2197    10.5333     9.0695 H       
 296 H296           5.3384    10.2559    10.5909 H       
 297 H297           3.8000    12.1209    10.0397 H       
 298 H298           4.6814    12.3983     8.5183 H       
 299 H299           3.2448     9.8206     9.2986 H       
 300 H300           4.1262    10.0980     7.7773 H       
@<TRIPOS>BOND
   1    1    2 2
   2    1    4 1
   3    1   13 am
   4    3  125 am
   5    3    4 1
   6    3  142 1
   7    4    5 1
   8    4  143 1
   9    5    6 1
  10    5  144 1
  11    5  145 1
  12    6    7 2
  13    6   10 1
  14    7    8 1
  15    7  146 1
  16    8    9 1
  17    8  147 1
  18    9   10 2
  19    9  148 1
  20   11   12 2
  21   11   14 1
  22   11   18 am
  23   13   14 1
  24   13  149 1
  25   14   15 1
  26   14  150 1
  27   15  151 1
  28   15  152 1
  29   15  153 1
  30   16   17 2
  31   16   19 1
  32   16   25 am
  33   18   19 1
  34   18  154 1
  35   19   20 1
  36   19  155 1
  37   20   21 1
  38   20   22 1
  39   20  156 1
  40   21  157 1
  41   21  158 1
  42   21  159 1
  43   22  160 1
  44   22  161 1
  45   22  162 1
  46   23   24 2
  47   23   26 1
  48   23   35 am
  49   25   26 1
  50   25  163 1
  51   26   27 1
  52   26  164 1
  53   27   28 1
  54   27  165 1
  55   27  166 1
  56   28   29 2
  57   28   32 1
  58   29   30 1
  59   29  167 1
  60   30   31 1
  61   30  168 1
  62   31   32 2
  63   31  169 1
  64   33   34 2
  65   33   36 1
  66   33   40 am
  67   35   36 1
  68   35  170 1
  69   36   37 1
  70   36  171 1
  71   37  172 1
  72   37  173 1
  73   37  174 1
  74   38   39 2
  75   38   41 1
  76   38   52 am
  77   40   41 1
  78   40  175 1
  79   41   42 1
  80   41  176 1
  81   42   43 1
  82   42  177 1
  83   42  178 1
  84   43   44 ar
  85   43   49 ar
  86   44   45 ar
  87   44  179 1
  88   45   46 ar
  89   45  180 1
  90   46   47 1
  91   46   48 ar
  92   47  181 1
  93   48   49 ar
  94   48  182 1
  95   49  183 1
  96   50   51 2
  97   50   53 1
  98   50   63 am
  99   52   53 1
 100   52  184 1
 101   53   54 1
 102   53  185 1
 103   54   55 1
 104   54  186 1
 105   54  187 1
 106   55   56 1
 107   55  188 1
 108   55  189 1
 109   56   57 1
 110   56  190 1
 111   56  191 1
 112   57   58 1
 113   57  192 1
 114   58   59 2
 115   58   60 1
 116   59  193 1
 117   60  194 1
 118   60  195 1
 119   61   62 2
 120   61   64 1
 121   61   73 am
 122   63   64 1
 123   63  196 1
 124   64   65 1
 125   64  197 1
 126   65   66 1
 127   65  198 1
 128   65  199 1
 129   66   67 2
 130   66   70 1
 131   67   68 1
 132   67  200 1
 133   68   69 1
 134   68  201 1
 135   69   70 2
 136   69  202 1
 137   71   72 2
 138   71   74 1
 139   71   84 am
 140   73   74 1
 141   73  203 1
 142   74   75 1
 143   74  204 1
 144   75   76 1
 145   75  205 1
 146   75  206 1
 147   76   77 1
 148   76  207 1
 149   76  208 1
 150   77   78 1
 151   77  209 1
 152   77  210 1
 153   78   79 1
 154   78  211 1
 155   79   80 2
 156   79   81 1
 157   80  212 1
 158   81  213 1
 159   81  214 1
 160   82   83 2
 161   82   85 1
 162   82   95 am
 163   84   85 1
 164   84  215 1
 165   85   86 1
 166   85  216 1
 167   86   87 1
 168   86  217 1
 169   86  218 1
 170   87   88 1
 171   87  219 1
 172   87  220 1
 173   88   89 1
 174   88  221 1
 175   88  222 1
 176   89   90 1
 177   89  223 1
 178   90   91 2
 179   90   92 1
 180   91  224 1
 181   92  225 1
 182   92  226 1
 183   93   94 2
 184   93   96 1
 185   93  103 am
 186   95   96 1
 187   95  227 1
 188   96   97 1
 189   96  228 1
 190   97   98 1
 191   97  229 1
 192   97  230 1
 193   98   99 1
 194   98  100 1
 195   98  231 1
 196   99  232 1
 197   99  233 1
 198   99  234 1
 199  100  235 1
 200  100  236 1
 201  100  237 1
 202  101  102 2
 203  101  104 1
 204  101  111 am
 205  103  104 1
 206  103  238 1
 207  104  105 1
 208  104  239 1
 209  105  106 1
 210  105  240 1
 211  105  241 1
 212  106  107 1
 213  106  108 1
 214  106  242 1
 215  107  243 1
 216  107  244 1
 217  107  245 1
 218  108  246 1
 219  108  247 1
 220  108  248 1
 221  109  110 2
 222  109  112 1
 223  109  118 am
 224  111  112 1
 225  111  249 1
 226  112  113 1
 227  112  250 1
 228  113  114 1
 229  113  115 1
 230  113  251 1
 231  114  252 1
 232  114  253 1
 233  114  254 1
 234  115  255 1
 235  115  256 1
 236  115  257 1
 237  116  117 2
 238  116  119 1
 239  116  124 1
 240  118  119 1
 241  118  258 1
 242  119  120 1
 243  119  259 1
 244  120  121 1
 245  120  123 1
 246  120  260 1
 247  121  122 1
 248  121  261 1
 249  121  262 1
 250  122  263 1
 251  122  264 1
 252  122  265 1
 253  123  266 1
 254  123  267 1
 255  123  268 1
 256  124  269 1
 257  125  126 2
 258  125  141 1
 259  127  128 1
 260  127  270 1
 261  127  271 1
 262  127  272 1
 263  128  129 1
 264  128  273 1
 265  128  274 1
 266  129  130 1
 267  129  275 1
 268  129  276 1
 269  130  131 1
 270  130  277 1
 271  130  278 1
 272  131  132 1
 273  131  279 1
 274  131  280 1
 275  132  133 1
 276  132  281 1
 277  132  282 1
 278  133  134 1
 279  133  283 1
 280  133  284 1
 281  134  135 1
 282  134  285 1
 283  134  286 1
 284  135  136 1
 285  135  287 1
 286  135  288 1
 287  136  137 1
 288  136  289 1
 289  136  290 1
 290  137  138 1
 291  137  291 1
 292  137  292 1
 293  138  139 1
 294  138  293 1
 295  138  294 1
 296  139  140 1
 297  139  295 1
 298  139  296 1
 299  140  141 1
 300  140  297 1
 301  140  298 1
 302  141  299 1
 303  141  300 1

#	End of record

