#	Name: ASD01815669
#	Creating user name:	WinNT
#	Creation time:	15. 06. 2019 19:33

#	Modifying user name:	WinNT
#	Modification time:	15. 06. 2019 19:33

#	Program:	/corina/corina34_cracker 3.40 0067  02.08.2006

@<TRIPOS>MOLECULE
ASD01815669
  58   60    0    0    0
SMALL
NO_CHARGES


@<TRIPOS>ATOM
   1 C1            -0.0528     1.4099     0.2538 C.ar    
   2 C2            -0.0684     0.0315     0.4761 C.ar    
   3 C3             1.1779     2.1874     0.5048 C.2     
   4 O4             1.1593     3.3998     0.4183 O.2     
   5 N5             2.3215     1.5525     0.8297 N.am    
   6 C6             3.5421     2.3235     1.0786 C.3     
   7 C7             4.7656     1.4441     0.8105 C.3     
   8 N8             5.9891     2.2101     1.0801 N.3     
   9 C9             6.0552     2.6275     2.4864 C.3     
  10 C10            4.8702     3.5423     2.8046 C.3     
  11 C11            3.5641     2.7892     2.5371 C.3     
  12 C12            7.1840     1.4438     0.7017 C.3     
  13 C13            8.4276     2.3179     0.8795 C.3     
  14 C14            9.6679     1.5273     0.4513 C.3     
  15 N15            9.7058     0.2643     1.2010 N.am    
  16 C16            8.5255    -0.6101     1.1720 C.3     
  17 C17            7.2979     0.2044     1.5921 C.3     
  18 C18           10.8026    -0.0857     1.9017 C.2     
  19 O19           11.7726     0.6461     1.9174 O.2     
  20 O20           10.8236    -1.2460     2.5841 O.3     
  21 C21           12.0380    -1.5583     3.3163 C.3     
  22 C22           11.8750    -2.9053     4.0235 C.3     
  23 C23           -1.2196    -0.6892     0.2403 C.ar    
  24 C24           -2.3605    -0.0479    -0.2171 C.ar    
  25 C25           -2.3505     1.3209    -0.4395 C.ar    
  26 C26           -1.2034     2.0501    -0.2121 C.ar    
  27 F27           -3.4858    -0.7590    -0.4475 F       
  28 C28           -1.1942     3.5376    -0.4537 C.3     
  29 H29            0.8200    -0.4692     0.8317 H       
  30 H30            2.3364     0.5851     0.8988 H       
  31 H31            3.5657     3.1907     0.4187 H       
  32 H32            4.7338     0.5697     1.4606 H       
  33 H33            4.7605     1.1225    -0.2310 H       
  34 H34            6.0174     1.7476     3.1286 H       
  35 H35            6.9867     3.1655     2.6622 H       
  36 H36            4.9109     3.8393     3.8525 H       
  37 H37            4.9150     4.4290     2.1724 H       
  38 H38            2.7178     3.4510     2.7210 H       
  39 H39            3.5010     1.9238     3.1968 H       
  40 H40            7.1027     1.1357    -0.3406 H       
  41 H41            8.3351     3.2119     0.2628 H       
  42 H42            8.5232     2.6058     1.9264 H       
  43 H43            9.6162     1.3168    -0.6169 H       
  44 H44           10.5643     2.1082     0.6683 H       
  45 H45            8.3806    -0.9950     0.1625 H       
  46 H46            8.6681    -1.4396     1.8645 H       
  47 H47            7.4042     0.5122     2.6323 H       
  48 H48            6.4015    -0.4059     1.4826 H       
  49 H49           12.8770    -1.6114     2.6225 H       
  50 H50           12.2267    -0.7801     4.0558 H       
  51 H51           12.7866    -3.1397     4.5731 H       
  52 H52           11.0359    -2.8522     4.7173 H       
  53 H53           11.6863    -3.6834     3.2840 H       
  54 H54           -1.2328    -1.7554     0.4119 H       
  55 H55           -3.2419     1.8155    -0.7962 H       
  56 H56           -1.3689     4.0596     0.4870 H       
  57 H57           -0.2268     3.8338    -0.8594 H       
  58 H58           -1.9802     3.7952    -1.1636 H       
@<TRIPOS>BOND
   1    1    2 ar
   2    1    3 1
   3    1   26 ar
   4    2   23 ar
   5    2   29 1
   6    3    4 2
   7    3    5 am
   8    5    6 1
   9    5   30 1
  10    6    7 1
  11    6   11 1
  12    6   31 1
  13    7    8 1
  14    7   32 1
  15    7   33 1
  16    8    9 1
  17    8   12 1
  18    9   10 1
  19    9   34 1
  20    9   35 1
  21   10   11 1
  22   10   36 1
  23   10   37 1
  24   11   38 1
  25   11   39 1
  26   12   13 1
  27   12   17 1
  28   12   40 1
  29   13   14 1
  30   13   41 1
  31   13   42 1
  32   14   15 1
  33   14   43 1
  34   14   44 1
  35   15   16 1
  36   15   18 am
  37   16   17 1
  38   16   45 1
  39   16   46 1
  40   17   47 1
  41   17   48 1
  42   18   19 2
  43   18   20 1
  44   20   21 1
  45   21   22 1
  46   21   49 1
  47   21   50 1
  48   22   51 1
  49   22   52 1
  50   22   53 1
  51   23   24 ar
  52   23   54 1
  53   24   25 ar
  54   24   27 1
  55   25   26 ar
  56   25   55 1
  57   26   28 1
  58   28   56 1
  59   28   57 1
  60   28   58 1

#	End of record

