#	Name: ASD07301331
#	Creating user name:	WinNT
#	Creation time:	15. 06. 2019 21:11

#	Modifying user name:	WinNT
#	Modification time:	15. 06. 2019 21:11

#	Program:	/corina/corina34_cracker 3.40 0067  02.08.2006

@<TRIPOS>MOLECULE
ASD07301331
  45   48    0    0    0
SMALL
NO_CHARGES


@<TRIPOS>ATOM
   1 C1             0.1081     1.6500    -0.8483 C.2     
   2 C2             0.4104     0.2289    -0.6191 C.2     
   3 C3             1.7554    -0.1723    -0.5596 C.2     
   4 C4             2.7371     0.7623    -0.7152 C.2     
   5 N5             2.4271     2.0681    -0.9257 N.pl3   
   6 N6             1.0999     2.5019    -0.9906 N.2     
   7 O7            -0.4904    -0.5864    -0.4828 O.2     
   8 C8             3.4595     2.9996    -1.0810 C.ar    
   9 C9             3.4343     3.8963    -2.1419 C.ar    
  10 C10            4.4547     4.8142    -2.2923 C.ar    
  11 C11            5.5011     4.8417    -1.3882 C.ar    
  12 C12            5.5295     3.9504    -0.3315 C.ar    
  13 C13            4.5088     3.0336    -0.1717 C.ar    
  14 C14            4.4285     5.7870    -3.4430 C.3     
  15 F15            3.7546     6.9500    -3.0553 F       
  16 F16            5.7392     6.1085    -3.8118 F       
  17 F17            3.7675     5.2054    -4.5303 F       
  18 N18           -1.7930     3.2728    -0.4012 N.pl3   
  19 N19           -3.1604     3.3197    -0.7002 N.2     
  20 C20           -3.4815     2.2432    -1.3726 C.2     
  21 C21           -2.3392     1.4593    -1.5351 C.2     
  22 C22           -1.2921     2.1137    -0.9239 C.2     
  23 C23           -1.0676     4.2428     0.3022 C.ar    
  24 C24           -1.2651     5.5907     0.0325 C.ar    
  25 C25           -0.5486     6.5448     0.7281 C.ar    
  26 C26            0.3649     6.1590     1.6920 C.ar    
  27 C27            0.5641     4.8176     1.9625 C.ar    
  28 C28           -0.1537     3.8589     1.2747 C.ar    
  29 O29            4.0342     0.3843    -0.6588 O.3     
  30 C30            4.2987    -0.9782    -0.3190 C.3     
  31 H31            2.0094    -1.2086    -0.3923 H       
  32 H32            2.6177     3.8751    -2.8484 H       
  33 H33            6.2980     5.5607    -1.5081 H       
  34 H34            6.3482     3.9743     0.3725 H       
  35 H35            4.5291     2.3409     0.6566 H       
  36 H36           -4.4679     2.0019    -1.7403 H       
  37 H37           -2.2853     0.5103    -2.0477 H       
  38 H38           -1.9779     5.8925    -0.7206 H       
  39 H39           -0.7017     7.5932     0.5189 H       
  40 H40            0.9242     6.9070     2.2343 H       
  41 H41            1.2788     4.5195     2.7153 H       
  42 H42           -0.0009     2.8116     1.4895 H       
  43 H43            3.8150    -1.2170     0.6281 H       
  44 H44            3.9085    -1.6300    -1.1008 H       
  45 H45            5.3744    -1.1271    -0.2253 H       
@<TRIPOS>BOND
   1    1    2 1
   2    1    6 2
   3    1   22 1
   4    2    3 1
   5    2    7 2
   6    3    4 2
   7    3   31 1
   8    4    5 1
   9    4   29 1
  10    5    6 1
  11    5    8 1
  12    8    9 ar
  13    8   13 ar
  14    9   10 ar
  15    9   32 1
  16   10   11 ar
  17   10   14 1
  18   11   12 ar
  19   11   33 1
  20   12   13 ar
  21   12   34 1
  22   13   35 1
  23   14   15 1
  24   14   16 1
  25   14   17 1
  26   18   19 1
  27   18   22 1
  28   18   23 1
  29   19   20 2
  30   20   21 1
  31   20   36 1
  32   21   22 2
  33   21   37 1
  34   23   24 ar
  35   23   28 ar
  36   24   25 ar
  37   24   38 1
  38   25   26 ar
  39   25   39 1
  40   26   27 ar
  41   26   40 1
  42   27   28 ar
  43   27   41 1
  44   28   42 1
  45   29   30 1
  46   30   43 1
  47   30   44 1
  48   30   45 1

#	End of record

