#	Name: ASD01884872
#	Creating user name:	WinNT
#	Creation time:	15. 06. 2019 19:49

#	Modifying user name:	WinNT
#	Modification time:	15. 06. 2019 19:49

#	Program:	/corina/corina34_cracker 3.40 0067  02.08.2006

@<TRIPOS>MOLECULE
ASD01884872
  43   47    0    0    0
SMALL
NO_CHARGES


@<TRIPOS>ATOM
   1 C1            -0.0164     1.3608     0.0095 C.ar    
   2 C2             0.0021    -0.0041     0.0020 C.ar    
   3 C3             1.2156    -0.7015    -0.0129 C.ar    
   4 C4             2.4184    -0.0058    -0.0202 C.ar    
   5 C5             2.4030     1.3882    -0.0131 C.ar    
   6 C6             1.1763     2.0776     0.0020 C.ar    
   7 C7             3.4480     2.4167    -0.0178 C.2     
   8 C8             2.8292     3.6067    -0.0064 C.2     
   9 N9             1.4694     3.4266     0.0056 N.pl3   
  10 C10            1.2176    -2.1830    -0.0204 C.2     
  11 C11            0.7040    -2.8753    -1.1009 C.2     
  12 C12            1.7516    -2.9028     1.0780 C.2     
  13 C13            1.7536    -4.2475     1.0717 C.2     
  14 N14            1.2432    -4.9439     0.0101 N.pl3   
  15 C15            0.7194    -4.2824    -1.0795 C.2     
  16 Cl16           0.0491    -2.0220    -2.4635 Cl      
  17 C17            1.1151    -6.2721    -0.2661 C.2     
  18 N18            0.5461    -6.3753    -1.4440 N.2     
  19 N19            0.3104    -5.2077    -1.9302 N.2     
  20 O20            1.5049    -7.2995     0.5304 O.3     
  21 C21            0.5269     4.4499     0.0193 C.ar    
  22 N22            0.9394     5.7080     0.0217 N.ar    
  23 C23            0.0701     6.7048     0.0341 C.ar    
  24 C24           -1.2862     6.4187     0.0446 C.ar    
  25 C25           -1.6827     5.0904     0.0417 C.ar    
  26 N26           -0.7607     4.1422     0.0240 N.ar    
  27 C27            1.2742    -8.6225     0.0421 C.3     
  28 C28            1.7755    -9.6398     1.0691 C.3     
  29 H29           -0.9600     1.8861     0.0168 H       
  30 H30           -0.9290    -0.5514     0.0080 H       
  31 H31            3.3569    -0.5402    -0.0310 H       
  32 H32            4.5147     2.2480    -0.0279 H       
  33 H33            3.3277     4.5648    -0.0061 H       
  34 H34            2.1591    -2.3686     1.9237 H       
  35 H35            2.1633    -4.7844     1.9145 H       
  36 H36            0.4128     7.7290     0.0364 H       
  37 H37           -2.0178     7.2131     0.0552 H       
  38 H38           -2.7316     4.8331     0.0500 H       
  39 H39            0.2066    -8.7682    -0.1223 H       
  40 H40            1.8088    -8.7614    -0.8976 H       
  41 H41            1.2409    -9.5010     2.0089 H       
  42 H42            1.5995   -10.6490     0.6967 H       
  43 H43            2.8431    -9.4942     1.2335 H       
@<TRIPOS>BOND
   1    1    2 ar
   2    1    6 ar
   3    1   29 1
   4    2    3 ar
   5    2   30 1
   6    3    4 ar
   7    3   10 1
   8    4    5 ar
   9    4   31 1
  10    5    6 ar
  11    5    7 1
  12    6    9 1
  13    7    8 2
  14    7   32 1
  15    8    9 1
  16    8   33 1
  17    9   21 1
  18   10   11 2
  19   10   12 1
  20   11   16 1
  21   11   15 1
  22   12   13 2
  23   12   34 1
  24   13   14 1
  25   13   35 1
  26   14   15 1
  27   14   17 1
  28   15   19 2
  29   17   18 2
  30   17   20 1
  31   18   19 1
  32   20   27 1
  33   21   22 ar
  34   21   26 ar
  35   22   23 ar
  36   23   24 ar
  37   23   36 1
  38   24   25 ar
  39   24   37 1
  40   25   26 ar
  41   25   38 1
  42   27   28 1
  43   27   39 1
  44   27   40 1
  45   28   41 1
  46   28   42 1
  47   28   43 1

#	End of record

