#	Name: ASD01410975
#	Creating user name:	WinNT
#	Creation time:	15. 06. 2019 19:19

#	Modifying user name:	WinNT
#	Modification time:	15. 06. 2019 19:19

#	Program:	/corina/corina34_cracker 3.40 0067  02.08.2006

@<TRIPOS>MOLECULE
ASD01410975
  56   58    0    0    0
SMALL
NO_CHARGES


@<TRIPOS>ATOM
   1 C1             0.9071     2.2022     0.2393 C.ar    
   2 P2             0.7705     0.4070     0.0179 P.3     
   3 N3             0.2363    -0.2960     1.4507 N.3     
   4 O4            -0.1955     0.1155    -1.0648 O.2     
   5 C5             0.1201    -1.6767     1.3160 C.2     
   6 C6            -1.0202    -2.3660     1.6591 C.2     
   7 S7            -0.7886    -4.0809     1.3485 S.3     
   8 C8             0.8450    -3.7953     0.7656 C.2     
   9 C9             1.1333    -2.4655     0.8231 C.2     
  10 C10           -2.1962    -1.7852     2.1809 C.2     
  11 O11           -2.2313    -0.5920     2.4204 O.2     
  12 O12           -3.2821    -2.5529     2.4144 O.3     
  13 C13            1.7675    -4.8428     0.2803 C.ar    
  14 C14            1.3625    -6.1787     0.2607 C.ar    
  15 C15            2.2271    -7.1521    -0.1937 C.ar    
  16 C16            3.4964    -6.8062    -0.6300 C.ar    
  17 C17            3.9037    -5.4815    -0.6127 C.ar    
  18 C18            3.0450    -4.4994    -0.1658 C.ar    
  19 O19            2.2113    -0.1969    -0.3715 O.3     
  20 C20            2.9321     0.2011    -1.5395 C.3     
  21 F21            4.3399    -7.7639    -1.0733 F       
  22 C22            2.0935     2.7556     0.6826 C.ar    
  23 C23            2.1975     4.1238     0.8514 C.ar    
  24 C24            1.1153     4.9384     0.5765 C.ar    
  25 C25           -0.0712     4.3849     0.1322 C.ar    
  26 C26           -0.1739     3.0175    -0.0408 C.ar    
  27 C27            1.2284     6.4297     0.7614 C.3     
  28 C28            1.1225     0.0510     2.5697 C.3     
  29 C29            0.3454    -0.0444     3.8842 C.3     
  30 C30            2.3044    -0.9201     2.6043 C.3     
  31 C31            3.2735     1.8675     0.9824 C.3     
  32 H32            2.0848    -2.0622     0.5095 H       
  33 H33           -4.0381    -2.0668     2.7713 H       
  34 H34            0.3739    -6.4494     0.6011 H       
  35 H35            1.9149    -8.1858    -0.2093 H       
  36 H36            4.8938    -5.2175    -0.9538 H       
  37 H37            3.3618    -3.4669    -0.1569 H       
  38 H38            3.1322     1.2717    -1.4958 H       
  39 H39            3.8753    -0.3431    -1.5874 H       
  40 H40            2.3387    -0.0217    -2.4262 H       
  41 H41            3.1244     4.5562     1.1985 H       
  42 H42           -0.9170     5.0213    -0.0823 H       
  43 H43           -1.0995     2.5855    -0.3914 H       
  44 H44            1.5751     6.8856    -0.1660 H       
  45 H45            0.2527     6.8382     1.0245 H       
  46 H46            1.9392     6.6440     1.5595 H       
  47 H47            1.4917     1.0682     2.4389 H       
  48 H48            0.0475    -1.0787     4.0560 H       
  49 H49            0.9779     0.2927     4.7055 H       
  50 H50           -0.5428     0.5849     3.8277 H       
  51 H51            2.7923    -0.9334     1.6298 H       
  52 H52            3.0173    -0.5978     3.3633 H       
  53 H53            1.9454    -1.9208     2.8447 H       
  54 H54            3.8768     1.7487     0.0823 H       
  55 H55            3.8784     2.3199     1.7682 H       
  56 H56            2.9188     0.8914     1.3134 H       
@<TRIPOS>BOND
   1    1    2 1
   2    1   22 ar
   3    1   26 ar
   4    2    3 1
   5    2    4 2
   6    2   19 1
   7    3    5 1
   8    3   28 1
   9    5    6 2
  10    5    9 1
  11    6    7 1
  12    6   10 1
  13    7    8 1
  14    8    9 2
  15    8   13 1
  16    9   32 1
  17   10   11 2
  18   10   12 1
  19   12   33 1
  20   13   14 ar
  21   13   18 ar
  22   14   15 ar
  23   14   34 1
  24   15   16 ar
  25   15   35 1
  26   16   17 ar
  27   16   21 1
  28   17   18 ar
  29   17   36 1
  30   18   37 1
  31   19   20 1
  32   20   38 1
  33   20   39 1
  34   20   40 1
  35   22   23 ar
  36   22   31 1
  37   23   24 ar
  38   23   41 1
  39   24   25 ar
  40   24   27 1
  41   25   26 ar
  42   25   42 1
  43   26   43 1
  44   27   44 1
  45   27   45 1
  46   27   46 1
  47   28   29 1
  48   28   30 1
  49   28   47 1
  50   29   48 1
  51   29   49 1
  52   29   50 1
  53   30   51 1
  54   30   52 1
  55   30   53 1
  56   31   54 1
  57   31   55 1
  58   31   56 1

#	End of record

