#	Name: ASD01815835
#	Creating user name:	WinNT
#	Creation time:	15. 06. 2019 19:34

#	Modifying user name:	WinNT
#	Modification time:	15. 06. 2019 19:34

#	Program:	/corina/corina34_cracker 3.40 0067  02.08.2006

@<TRIPOS>MOLECULE
ASD01815835
  52   57    0    0    0
SMALL
NO_CHARGES


@<TRIPOS>ATOM
   1 C1             0.0797     1.4527     0.4318 C.ar    
   2 C2             0.0729     0.0616     0.4281 C.ar    
   3 C3             1.2283    -0.6453     0.2752 C.ar    
   4 C4             2.4456     0.0352     0.1190 C.ar    
   5 C5             2.4487     1.4515     0.1233 C.ar    
   6 C6             1.2453     2.1461     0.2823 C.ar    
   7 C7             3.6571    -0.6694    -0.0416 C.ar    
   8 C8             4.8332    -0.0150    -0.1931 C.ar    
   9 C9             4.8915     1.3873    -0.1960 C.ar    
  10 C10            3.7200     2.1505    -0.0399 C.ar    
  11 C11            6.1608     2.1073    -0.3604 C.2     
  12 N12            6.1164     3.4598    -0.3510 N.am    
  13 C13            4.9356     4.1087    -0.1940 C.2     
  14 N14            3.7996     3.4916    -0.0472 N.2     
  15 C15            7.3529     4.2289    -0.5110 C.3     
  16 C16            7.2475     5.1156    -1.7556 C.3     
  17 C17            7.5666     5.1172     0.7185 C.3     
  18 C18            8.8176     5.9742     0.5080 C.3     
  19 O19            8.6666     6.7507    -0.6821 O.3     
  20 C20            8.5108     5.9727    -1.8706 C.3     
  21 O21            7.2131     1.5101    -0.4996 O.2     
  22 C22            3.6424    -2.1763    -0.0442 C.3     
  23 C23            3.3865    -2.6737    -1.4435 C.ar    
  24 C24            4.4488    -2.7877    -2.3312 C.ar    
  25 C25            4.2294    -3.2420    -3.6147 C.ar    
  26 C26            2.9469    -3.5808    -4.0057 C.ar    
  27 C27            1.8594    -3.4703    -3.1157 C.ar    
  28 C28            2.1187    -3.0085    -1.8123 C.ar    
  29 O29            7.7389     4.2970     1.8760 O.3     
  30 S30            2.2175    -4.1870    -5.4942 S.3     
  31 N31            0.7569    -4.2448    -4.9312 N.2     
  32 N32            0.7293    -3.8546    -3.7213 N.2     
  33 H33           -0.8494     1.9904     0.5501 H       
  34 H34           -0.8617    -0.4661     0.5484 H       
  35 H35            1.2070    -1.7250     0.2747 H       
  36 H36            1.2386     3.2261     0.2865 H       
  37 H37            5.7437    -0.5832    -0.3135 H       
  38 H38            4.9386     5.1887    -0.1908 H       
  39 H39            8.1955     3.5461    -0.6201 H       
  40 H40            7.1506     4.4889    -2.6422 H       
  41 H41            6.3748     5.7628    -1.6689 H       
  42 H42            6.7004     5.7645     0.8553 H       
  43 H43            8.9505     6.6391     1.3615 H       
  44 H44            9.6895     5.3272     0.4118 H       
  45 H45            9.3787     5.3257    -1.9979 H       
  46 H46            8.4226     6.6365    -2.7306 H       
  47 H47            4.6056    -2.5496     0.3036 H       
  48 H48            2.8538    -2.5331     0.6182 H       
  49 H49            5.4466    -2.5202    -2.0162 H       
  50 H50            5.0520    -3.3319    -4.3086 H       
  51 H51            1.3088    -2.9116    -1.1044 H       
  52 H52            7.8793     4.7946     2.6932 H       
@<TRIPOS>BOND
   1    1    2 ar
   2    1    6 ar
   3    1   33 1
   4    2    3 ar
   5    2   34 1
   6    3    4 ar
   7    3   35 1
   8    4    5 ar
   9    4    7 ar
  10    5    6 ar
  11    5   10 ar
  12    6   36 1
  13    7    8 ar
  14    7   22 1
  15    8    9 ar
  16    8   37 1
  17    9   10 ar
  18    9   11 1
  19   10   14 1
  20   11   12 am
  21   11   21 2
  22   12   13 1
  23   12   15 1
  24   13   14 2
  25   13   38 1
  26   15   16 1
  27   15   17 1
  28   15   39 1
  29   16   20 1
  30   16   40 1
  31   16   41 1
  32   17   18 1
  33   17   29 1
  34   17   42 1
  35   18   19 1
  36   18   43 1
  37   18   44 1
  38   19   20 1
  39   20   45 1
  40   20   46 1
  41   22   23 1
  42   22   47 1
  43   22   48 1
  44   23   24 ar
  45   23   28 ar
  46   24   25 ar
  47   24   49 1
  48   25   26 ar
  49   25   50 1
  50   26   27 ar
  51   26   30 1
  52   27   28 ar
  53   27   32 1
  54   28   51 1
  55   29   52 1
  56   30   31 1
  57   31   32 2

#	End of record

