#	Name: ASD06140025
#	Creating user name:	WinNT
#	Creation time:	15. 06. 2019 21:05

#	Modifying user name:	WinNT
#	Modification time:	15. 06. 2019 21:05

#	Program:	/corina/corina34_cracker 3.40 0067  02.08.2006

@<TRIPOS>MOLECULE
ASD06140025
  25   26    0    0    0
SMALL
NO_CHARGES


@<TRIPOS>ATOM
   1 N1            -0.0165     1.3648     0.0095 N.pl3   
   2 C2             0.0021    -0.0041     0.0020 C.2     
   3 N3            -1.2487    -0.4048     0.0118 N.2     
   4 N4            -2.0343     0.6121     0.0248 N.2     
   5 C5            -1.3406     1.7159     0.0301 C.2     
   6 S6             1.4323    -1.0329    -0.0177 S.3     
   7 N7             1.0880     2.2267     0.0036 N.2     
   8 C8             1.5884     2.6322    -1.1226 C.2     
   9 C9             2.7511     3.5394    -1.1288 C.ar    
  10 C10            3.2922     3.9778    -2.3398 C.ar    
  11 C11            4.3792     4.8265    -2.3387 C.ar    
  12 C12            4.9345     5.2438    -1.1405 C.ar    
  13 C13            4.4030     4.8124     0.0635 C.ar    
  14 C14            3.3124     3.9686     0.0762 C.ar    
  15 Cl15           6.3031     6.3118    -1.1479 Cl      
  16 C16           -1.8929     3.1179     0.0450 C.3     
  17 F17           -3.2474     3.0819     0.3932 F       
  18 F18           -1.1911     3.8857     0.9806 F       
  19 F19           -1.7529     3.6878    -1.2250 F       
  20 H20            1.6448    -1.1834     1.3681 H       
  21 H21            1.1535     2.3053    -2.0556 H       
  22 H22            2.8605     3.6526    -3.2748 H       
  23 H23            4.7985     5.1662    -3.2742 H       
  24 H24            4.8409     5.1412     0.9944 H       
  25 H25            2.8986     3.6332     1.0158 H       
@<TRIPOS>BOND
   1    1    2 1
   2    1    7 1
   3    1    5 1
   4    2    3 2
   5    2    6 1
   6    3    4 1
   7    4    5 2
   8    5   16 1
   9    6   20 1
  10    7    8 2
  11    8    9 1
  12    8   21 1
  13    9   10 ar
  14    9   14 ar
  15   10   11 ar
  16   10   22 1
  17   11   12 ar
  18   11   23 1
  19   12   13 ar
  20   12   15 1
  21   13   14 ar
  22   13   24 1
  23   14   25 1
  24   16   17 1
  25   16   18 1
  26   16   19 1

#	End of record

