#	Name: ASD01910413
#	Creating user name:	WinNT
#	Creation time:	15. 06. 2019 19:55

#	Modifying user name:	WinNT
#	Modification time:	15. 06. 2019 19:55

#	Program:	/corina/corina34_cracker 3.40 0067  02.08.2006

@<TRIPOS>MOLECULE
ASD01910413
  44   46    0    0    0
SMALL
NO_CHARGES


@<TRIPOS>ATOM
   1 C1             0.2013     1.6424     0.8954 C.ar    
   2 C2            -0.8679     2.2970     0.3094 C.ar    
   3 C3            -2.0521     1.6231     0.0835 C.ar    
   4 C4            -2.1693     0.2876     0.4450 C.ar    
   5 C5            -1.0950    -0.3670     1.0328 C.ar    
   6 C6             0.0889     0.3099     1.2513 C.ar    
   7 Cl7            1.6884     2.4923     1.1779 Cl      
   8 N8            -3.3688    -0.3977     0.2176 N.am    
   9 C9            -4.5456     0.2510     0.3210 C.2     
  10 O10           -5.6918    -0.3783    -0.0005 O.3     
  11 O11           -4.5722     1.4038     0.7043 O.2     
  12 C12           -7.4863     0.1929     1.5465 C.3     
  13 C13           -6.9215     0.3818     0.1351 C.3     
  14 C14           -7.9441    -0.1140    -0.8899 C.3     
  15 C15           -9.2291     0.7084    -0.7698 C.3     
  16 C16           -9.8201     0.5232     0.6313 C.3     
  17 N17           -8.7929     0.8603     1.6262 N.am    
  18 C18           -9.0441     1.7648     2.5933 C.2     
  19 O19           -8.2146     1.9787     3.4559 O.2     
  20 C20          -10.3275     2.4963     2.6051 C.ar    
  21 C21          -11.5273     1.8096     2.4072 C.ar    
  22 C22          -12.7219     2.4970     2.4192 C.ar    
  23 C23          -12.7338     3.8678     2.6273 C.ar    
  24 C24          -11.5454     4.5546     2.8239 C.ar    
  25 C25          -10.3456     3.8760     2.8200 C.ar    
  26 F26          -13.9075     4.5368     2.6380 F       
  27 H27           -0.7763     3.3359     0.0287 H       
  28 H28           -2.8863     2.1346    -0.3735 H       
  29 H29           -1.1838    -1.4057     1.3152 H       
  30 H30            0.9249    -0.1989     1.7082 H       
  31 H31           -3.3528    -1.3395    -0.0144 H       
  32 H32           -7.6061    -0.8706     1.7529 H       
  33 H33           -6.8056     0.6342     2.2746 H       
  34 H34           -6.7173     1.4387    -0.0366 H       
  35 H35           -7.5347    -0.0035    -1.8940 H       
  36 H36           -8.1664    -1.1645    -0.7021 H       
  37 H37           -9.0032     1.7622    -0.9330 H       
  38 H38           -9.9485     0.3703    -1.5157 H       
  39 H39          -10.6793     1.1824     0.7555 H       
  40 H40          -10.1302    -0.5134     0.7630 H       
  41 H41          -11.5191     0.7419     2.2447 H       
  42 H42          -13.6503     1.9670     2.2658 H       
  43 H43          -11.5603     5.6224     2.9851 H       
  44 H44           -9.4206     4.4118     2.9736 H       
@<TRIPOS>BOND
   1    1    2 ar
   2    1    7 1
   3    1    6 ar
   4    2    3 ar
   5    2   27 1
   6    3    4 ar
   7    3   28 1
   8    4    5 ar
   9    4    8 1
  10    5    6 ar
  11    5   29 1
  12    6   30 1
  13    8    9 am
  14    8   31 1
  15    9   10 1
  16    9   11 2
  17   10   13 1
  18   12   13 1
  19   12   17 1
  20   12   32 1
  21   12   33 1
  22   13   14 1
  23   13   34 1
  24   14   15 1
  25   14   35 1
  26   14   36 1
  27   15   16 1
  28   15   37 1
  29   15   38 1
  30   16   17 1
  31   16   39 1
  32   16   40 1
  33   17   18 am
  34   18   19 2
  35   18   20 1
  36   20   21 ar
  37   20   25 ar
  38   21   22 ar
  39   21   41 1
  40   22   23 ar
  41   22   42 1
  42   23   24 ar
  43   23   26 1
  44   24   25 ar
  45   24   43 1
  46   25   44 1

#	End of record

