#	Name: ASD02690031
#	Creating user name:	WinNT
#	Creation time:	15. 06. 2019 20:26

#	Modifying user name:	WinNT
#	Modification time:	15. 06. 2019 20:26

#	Program:	/corina/corina34_cracker 3.40 0067  02.08.2006

@<TRIPOS>MOLECULE
ASD02690031
  51   54    0    0    0
SMALL
NO_CHARGES


@<TRIPOS>ATOM
   1 C1            -0.0038     1.4595    -0.1175 C.3     
   2 N2             0.0021    -0.0041     0.0020 N.3     
   3 C3            -1.3562    -0.5483    -0.1275 C.3     
   4 C4            -1.9363    -0.1656    -1.4876 C.3     
   5 C5             1.4361     1.9779    -0.1239 C.3     
   6 C6             2.1311     1.5558     1.1736 C.3     
   7 C7             2.0808     0.0305     1.2974 C.3     
   8 C8            -3.2299    -0.8958    -1.7364 C.ar    
   9 C9             3.5672     2.0119     1.1470 C.2     
  10 C10            4.2907     2.2388     2.4082 C.ar    
  11 C11            3.6575     2.0351     3.6383 C.ar    
  12 C12            0.6223    -0.4314     1.2626 C.3     
  13 C13           -1.3107    -2.0781    -0.0346 C.3     
  14 C14           -2.7435    -2.5968     0.0693 C.3     
  15 C15           -3.5987    -2.0137    -1.0252 C.ar    
  16 C16           -4.8036    -2.6451    -1.3097 C.ar    
  17 C17           -5.6370    -2.1608    -2.2969 C.ar    
  18 C18           -5.2744    -1.0361    -3.0122 C.ar    
  19 O19            4.1266     2.1918     0.0863 O.2     
  20 C20           -4.0731    -0.4030    -2.7336 C.ar    
  21 O21           -0.6888    -2.6131    -1.2046 O.3     
  22 N22           -3.7041     0.7345    -3.4553 N.pl3   
  23 C23            5.6292     2.6577     2.3978 C.ar    
  24 C24            6.2629     2.8560     3.6113 C.ar    
  25 C25            5.5637     2.6373     4.7849 C.ar    
  26 N26            4.3058     2.2381     4.7656 N.ar    
  27 H27           -0.4971     1.7461    -1.0462 H       
  28 H28           -0.5413     1.8907     0.7271 H       
  29 H29           -1.9884    -0.1503     0.6664 H       
  30 H30           -2.1198     0.9086    -1.5107 H       
  31 H31           -1.2215    -0.4243    -2.2688 H       
  32 H32            1.9703     1.5579    -0.9761 H       
  33 H33            1.4310     3.0654    -0.1969 H       
  34 H34            1.6210     2.0083     2.0239 H       
  35 H35            2.6252    -0.4201     0.4675 H       
  36 H36            2.5364    -0.2733     2.2399 H       
  37 H37            2.6282     1.7090     3.6635 H       
  38 H38            0.0818     0.0086     2.1007 H       
  39 H39            0.5836    -1.5183     1.3362 H       
  40 H40           -0.7475    -2.3756     0.8499 H       
  41 H41           -2.7396    -3.6833    -0.0180 H       
  42 H42           -3.1580    -2.3161     1.0376 H       
  43 H43           -5.0905    -3.5246    -0.7523 H       
  44 H44           -6.5705    -2.6602    -2.5103 H       
  45 H45           -5.9240    -0.6515    -3.7846 H       
  46 H46           -0.6273    -3.5781    -1.2111 H       
  47 H47           -4.2878     1.0792    -4.1491 H       
  48 H48           -2.8641     1.1797    -3.2627 H       
  49 H49            6.1516     2.8207     1.4667 H       
  50 H50            7.2933     3.1781     3.6423 H       
  51 H51            6.0570     2.7917     5.7331 H       
@<TRIPOS>BOND
   1    1    2 1
   2    1    5 1
   3    1   27 1
   4    1   28 1
   5    2    3 1
   6    2   12 1
   7    3    4 1
   8    3   13 1
   9    3   29 1
  10    4    8 1
  11    4   30 1
  12    4   31 1
  13    5    6 1
  14    5   32 1
  15    5   33 1
  16    6    9 1
  17    6    7 1
  18    6   34 1
  19    7   12 1
  20    7   35 1
  21    7   36 1
  22    8   15 ar
  23    8   20 ar
  24    9   10 1
  25    9   19 2
  26   10   11 ar
  27   10   23 ar
  28   11   26 ar
  29   11   37 1
  30   12   38 1
  31   12   39 1
  32   13   14 1
  33   13   21 1
  34   13   40 1
  35   14   15 1
  36   14   41 1
  37   14   42 1
  38   15   16 ar
  39   16   17 ar
  40   16   43 1
  41   17   18 ar
  42   17   44 1
  43   18   20 ar
  44   18   45 1
  45   20   22 1
  46   21   46 1
  47   22   47 1
  48   22   48 1
  49   23   24 ar
  50   23   49 1
  51   24   25 ar
  52   24   50 1
  53   25   26 ar
  54   25   51 1

#	End of record

