#	Name: ASD01883312
#	Creating user name:	WinNT
#	Creation time:	15. 06. 2019 19:46

#	Modifying user name:	WinNT
#	Modification time:	15. 06. 2019 19:46

#	Program:	/corina/corina34_cracker 3.40 0067  02.08.2006

@<TRIPOS>MOLECULE
ASD01883312
  40   41    0    0    0
SMALL
NO_CHARGES


@<TRIPOS>ATOM
   1 N1            -0.0162     1.3415     0.0094 N.am    
   2 C2             0.0021    -0.0041     0.0020 C.2     
   3 C3            -1.2150    -0.7278     0.0102 C.2     
   4 C4            -2.4287    -0.0090     0.0261 C.2     
   5 C5            -2.3787     1.4030     0.0332 C.2     
   6 C6            -1.1850     2.0348     0.0299 C.2     
   7 O7             1.0659    -0.5997    -0.0122 O.2     
   8 C8            -1.2138    -2.1598     0.0021 C.1     
   9 N9            -1.2128    -3.2958    -0.0044 N.1     
  10 C10            1.2519     2.0751     0.0013 C.3     
  11 C11            1.6795     2.3383    -1.4440 C.3     
  12 C12            3.0038     3.1045    -1.4525 C.3     
  13 C13            4.1057     2.2250    -0.8581 C.3     
  14 C14            3.3686     3.4764    -2.8911 C.3     
  15 C15           -3.6851    -0.6961     0.0345 C.1     
  16 C16           -4.7151    -1.2593     0.0413 C.1     
  17 C17           -5.9715    -1.9464     0.0496 C.ar    
  18 C18           -7.1681    -1.2228     0.0654 C.ar    
  19 C19           -8.3739    -1.8916     0.0734 C.ar    
  20 C20           -8.4019    -3.2754     0.0658 C.ar    
  21 C21           -7.2219    -3.9986     0.0502 C.ar    
  22 C22           -6.0082    -3.3443     0.0362 C.ar    
  23 H23           -3.2939     1.9763     0.0454 H       
  24 H24           -1.1588     3.1145     0.0354 H       
  25 H25            1.1256     3.0247     0.5214 H       
  26 H26            2.0169     1.4840     0.5046 H       
  27 H27            1.8058     1.3888    -1.9642 H       
  28 H28            0.9145     2.9294    -1.9474 H       
  29 H29            2.9024     4.0119    -0.8572 H       
  30 H30            5.0491     2.7709    -0.8642 H       
  31 H31            3.8458     1.9601     0.1668 H       
  32 H32            4.2071     1.3176    -1.4534 H       
  33 H33            2.5836     4.1030    -3.3146 H       
  34 H34            4.3120     4.0223    -2.8972 H       
  35 H35            3.4700     2.5690    -3.4864 H       
  36 H36           -7.1478    -0.1430     0.0717 H       
  37 H37           -9.2989    -1.3343     0.0859 H       
  38 H38           -9.3494    -3.7935     0.0725 H       
  39 H39           -7.2519    -5.0781     0.0448 H       
  40 H40           -5.0883    -3.9099     0.0240 H       
@<TRIPOS>BOND
   1    1    2 am
   2    1   10 1
   3    1    6 1
   4    2    3 1
   5    2    7 2
   6    3    4 2
   7    3    8 1
   8    4    5 1
   9    4   15 1
  10    5    6 2
  11    5   23 1
  12    6   24 1
  13    8    9 3
  14   10   11 1
  15   10   25 1
  16   10   26 1
  17   11   12 1
  18   11   27 1
  19   11   28 1
  20   12   13 1
  21   12   14 1
  22   12   29 1
  23   13   30 1
  24   13   31 1
  25   13   32 1
  26   14   33 1
  27   14   34 1
  28   14   35 1
  29   15   16 3
  30   16   17 1
  31   17   18 ar
  32   17   22 ar
  33   18   19 ar
  34   18   36 1
  35   19   20 ar
  36   19   37 1
  37   20   21 ar
  38   20   38 1
  39   21   22 ar
  40   21   39 1
  41   22   40 1

#	End of record

