#	Name: ASD09740312
#	Creating user name:	WinNT
#	Creation time:	15. 06. 2019 21:23

#	Modifying user name:	WinNT
#	Modification time:	15. 06. 2019 21:23

#	Program:	/corina/corina34_cracker 3.40 0067  02.08.2006

@<TRIPOS>MOLECULE
ASD09740312
  33   36    0    0    0
SMALL
NO_CHARGES


@<TRIPOS>ATOM
   1 O1            -0.0144     1.2085     0.0087 O.3     
   2 N2             0.0021    -0.0041     0.0020 N.2     
   3 C3             1.2410     1.6827    -0.0008 C.2     
   4 N4             2.0453     0.6366    -0.0141 N.2     
   5 C5             1.2345    -0.4419    -0.0121 C.2     
   6 C6             1.6625    -1.8640    -0.0234 C.ar    
   7 C7             1.6456     3.1049     0.0030 C.ar    
   8 C8             0.7216    -2.8964    -0.0200 C.ar    
   9 C9             1.1624    -4.2045    -0.0308 C.ar    
  10 N10            2.4512    -4.4843    -0.0441 N.ar    
  11 C11            3.3714    -3.5395    -0.0477 C.ar    
  12 C12            3.0170    -2.2054    -0.0435 C.ar    
  13 C13            2.9992     3.4473    -0.0086 C.ar    
  14 C14            3.3788     4.7751    -0.0050 C.ar    
  15 C15            2.4242     5.7723     0.0100 C.ar    
  16 C16            1.0666     5.4438     0.0222 C.ar    
  17 C17            0.6768     4.1064     0.0124 C.ar    
  18 C18            0.0457     6.5130     0.0388 C.2     
  19 C19            0.3041     7.8358     0.0436 C.2     
  20 C20           -0.8155     8.6420     0.0590 C.2     
  21 C21           -1.9820     7.9906     0.0667 C.2     
  22 S22           -1.6943     6.2558     0.0477 S.3     
  23 H23           -0.3353    -2.6745    -0.0088 H       
  24 H24            0.4425    -5.0095    -0.0279 H       
  25 H25            4.4161    -3.8133    -0.0588 H       
  26 H26            3.7757    -1.4368    -0.0465 H       
  27 H27            3.7511     2.6721    -0.0200 H       
  28 H28            4.4271     5.0346    -0.0137 H       
  29 H29            2.7277     6.8088     0.0127 H       
  30 H30           -0.3715     3.8469     0.0218 H       
  31 H31            1.3082     8.2333     0.0364 H       
  32 H32           -0.7535     9.7203     0.0647 H       
  33 H33           -2.9551     8.4590     0.0791 H       
@<TRIPOS>BOND
   1    1    2 1
   2    1    3 1
   3    2    5 2
   4    3    4 2
   5    3    7 1
   6    4    5 1
   7    5    6 1
   8    6    8 ar
   9    6   12 ar
  10    7   13 ar
  11    7   17 ar
  12    8    9 ar
  13    8   23 1
  14    9   10 ar
  15    9   24 1
  16   10   11 ar
  17   11   12 ar
  18   11   25 1
  19   12   26 1
  20   13   14 ar
  21   13   27 1
  22   14   15 ar
  23   14   28 1
  24   15   16 ar
  25   15   29 1
  26   16   17 ar
  27   16   18 1
  28   17   30 1
  29   18   19 2
  30   18   22 1
  31   19   20 1
  32   19   31 1
  33   20   21 2
  34   20   32 1
  35   21   22 1
  36   21   33 1

#	End of record

