#	Name: ASD01880049
#	Creating user name:	WinNT
#	Creation time:	15. 06. 2019 19:39

#	Modifying user name:	WinNT
#	Modification time:	15. 06. 2019 19:39

#	Program:	/corina/corina34_cracker 3.40 0067  02.08.2006

@<TRIPOS>MOLECULE
ASD01880049
  54   56    0    0    0
SMALL
NO_CHARGES


@<TRIPOS>ATOM
   1 S1            -0.0218     1.7577     0.0117 S.3     
   2 C2            -0.3827     1.4226    -1.6801 C.ar    
   3 C3            -1.6377     0.9487    -2.0642 C.ar    
   4 C4            -1.8798     0.6994    -3.3984 C.ar    
   5 N5            -0.9431     0.9034    -4.3060 N.ar    
   6 C6             0.2561     1.3507    -3.9830 C.ar    
   7 C7             0.5771     1.6297    -2.6715 C.ar    
   8 C8             4.5589     7.7103     2.3272 C.ar    
   9 C9             4.4067     7.0994     1.0909 C.ar    
  10 C10            4.6532     7.8112    -0.0806 C.ar    
  11 C11            5.0464     9.1164    -0.0258 C.ar    
  12 C12            5.2050     9.7503     1.2143 C.ar    
  13 C13            4.9513     9.0358     2.3989 C.ar    
  14 C14            5.6276    11.1516     1.2760 C.2     
  15 C15            5.8930    11.9152     0.0042 C.3     
  16 C16            6.3166    13.3450     0.3468 C.3     
  17 C17            6.7059    14.0827    -0.9359 C.3     
  18 C18            5.1528    14.0740     1.0213 C.3     
  19 O19            5.1009     9.6386     3.6044 O.3     
  20 O20            5.7639    11.6974     2.3511 O.2     
  21 C21            2.6465     1.1525     0.0648 C.ar    
  22 C22            1.6934     2.1598    -0.0210 C.ar    
  23 C23            2.0961     3.4852    -0.1332 C.ar    
  24 C24            3.4409     3.7965    -0.1590 C.ar    
  25 C25            4.3870     2.7911    -0.0733 C.ar    
  26 C26            3.9900     1.4712     0.0380 C.ar    
  27 C27            4.2909     6.9336     3.5905 C.3     
  28 C28            3.8786     5.2334    -0.2811 C.3     
  29 O29            4.0162     5.8019     1.0227 O.3     
  30 H30           -2.4083     0.7793    -1.3267 H       
  31 H31           -2.8481     0.3321    -3.7048 H       
  32 H32            0.9941     1.5038    -4.7566 H       
  33 H33            1.5601     1.9955    -2.4141 H       
  34 H34            4.5327     7.3268    -1.0384 H       
  35 H35            5.2360     9.6615    -0.9386 H       
  36 H36            6.6896    11.4243    -0.5549 H       
  37 H37            4.9865    11.9399    -0.6007 H       
  38 H38            7.1703    13.3186     1.0240 H       
  39 H39            5.8522    14.1091    -1.6131 H       
  40 H40            7.0077    15.1013    -0.6918 H       
  41 H41            7.5350    13.5633    -1.4164 H       
  42 H42            4.8755    13.5484     1.9350 H       
  43 H43            5.4546    15.0925     1.2653 H       
  44 H44            4.2992    14.1004     0.3440 H       
  45 H45            4.3000    10.0723     3.9293 H       
  46 H46            2.3370     0.1218     0.1565 H       
  47 H47            1.3579     4.2707    -0.2005 H       
  48 H48            5.4383     3.0375    -0.0937 H       
  49 H49            4.7314     0.6887     0.1046 H       
  50 H50            5.2097     6.4490     3.9209 H       
  51 H51            3.9389     7.6128     4.3668 H       
  52 H52            3.5303     6.1771     3.3974 H       
  53 H53            4.8360     5.2787    -0.8001 H       
  54 H54            3.1328     5.7937    -0.8449 H       
@<TRIPOS>BOND
   1    1    2 1
   2    1   22 1
   3    2    3 ar
   4    2    7 ar
   5    3    4 ar
   6    3   30 1
   7    4    5 ar
   8    4   31 1
   9    5    6 ar
  10    6    7 ar
  11    6   32 1
  12    7   33 1
  13    8    9 ar
  14    8   27 1
  15    8   13 ar
  16    9   10 ar
  17    9   29 1
  18   10   11 ar
  19   10   34 1
  20   11   12 ar
  21   11   35 1
  22   12   13 ar
  23   12   14 1
  24   13   19 1
  25   14   15 1
  26   14   20 2
  27   15   16 1
  28   15   36 1
  29   15   37 1
  30   16   17 1
  31   16   18 1
  32   16   38 1
  33   17   39 1
  34   17   40 1
  35   17   41 1
  36   18   42 1
  37   18   43 1
  38   18   44 1
  39   19   45 1
  40   21   22 ar
  41   21   26 ar
  42   21   46 1
  43   22   23 ar
  44   23   24 ar
  45   23   47 1
  46   24   25 ar
  47   24   28 1
  48   25   26 ar
  49   25   48 1
  50   26   49 1
  51   27   50 1
  52   27   51 1
  53   27   52 1
  54   28   29 1
  55   28   53 1
  56   28   54 1

#	End of record

