#	Name: ASD01912429
#	Creating user name:	WinNT
#	Creation time:	15. 06. 2019 19:59

#	Modifying user name:	WinNT
#	Modification time:	15. 06. 2019 19:59

#	Program:	/corina/corina34_cracker 3.40 0067  02.08.2006

@<TRIPOS>MOLECULE
ASD01912429
  45   47    0    0    0
SMALL
NO_CHARGES


@<TRIPOS>ATOM
   1 C1            -0.3201     0.5434    -1.6323 C.1     
   2 C2            -0.1768     1.6987    -0.7985 C.ar    
   3 C3             1.0191     2.4257    -0.7874 C.ar    
   4 C4             1.1069     3.5344     0.0359 C.ar    
   5 C5             0.0222     3.8905     0.8172 C.ar    
   6 N6            -1.0964     3.1923     0.7926 N.ar    
   7 C7            -1.2366     2.1269     0.0194 C.ar    
   8 N8            -0.4338    -0.3731    -2.2938 N.1     
   9 N9            -2.4310     1.4278     0.0207 N.3     
  10 C10           -3.5744     2.3397     0.1506 C.3     
  11 C11           -4.8741     1.5649    -0.0952 C.3     
  12 C12           -4.8958     0.3688     0.8333 C.2     
  13 C13           -3.6608    -0.5060     0.8863 C.3     
  14 C14           -2.4382     0.4004     1.0697 C.3     
  15 C15           -5.9654     0.0955     1.5789 C.2     
  16 C16           -7.1205     0.9392     1.5104 C.1     
  17 C17           -8.0674     1.6309     1.4543 C.1     
  18 C18          -10.3513     2.1989     2.1630 C.ar    
  19 C19           -9.2224     2.4746     1.3859 C.ar    
  20 C20           -9.2404     3.5909     0.5390 C.ar    
  21 C21          -10.3827     4.3745     0.5109 C.ar    
  22 C22          -11.4594     4.0320     1.3132 C.ar    
  23 N23          -11.4131     2.9745     2.1007 N.ar    
  24 F24          -10.4460     5.4610    -0.2896 F       
  25 C25           -5.9598    -1.1015     2.4944 C.3     
  26 C26            0.1208     5.0981     1.7132 C.3     
  27 H27            1.8531     2.1285    -1.4060 H       
  28 H28            2.0155     4.1173     0.0686 H       
  29 H29           -3.5885     2.7643     1.1544 H       
  30 H30           -3.4850     3.1415    -0.5824 H       
  31 H31           -5.7299     2.2072     0.1127 H       
  32 H32           -4.9104     1.2270    -1.1309 H       
  33 H33           -3.7355    -1.1969     1.7260 H       
  34 H34           -3.5669    -1.0661    -0.0441 H       
  35 H35           -1.5291    -0.1969     0.9998 H       
  36 H36           -2.4843     0.8796     2.0476 H       
  37 H37          -10.3539     1.3395     2.8171 H       
  38 H38           -8.3861     3.8343    -0.0753 H       
  39 H39          -12.3511     4.6410     1.2937 H       
  40 H40           -5.5788    -0.8088     3.4728 H       
  41 H41           -6.9753    -1.4834     2.5993 H       
  42 H42           -5.3213    -1.8780     2.0733 H       
  43 H43           -0.2087     5.9827     1.1683 H       
  44 H44           -0.5125     4.9537     2.5886 H       
  45 H45            1.1549     5.2313     2.0309 H       
@<TRIPOS>BOND
   1    1    2 1
   2    1    8 3
   3    2    3 ar
   4    2    7 ar
   5    3    4 ar
   6    3   27 1
   7    4    5 ar
   8    4   28 1
   9    5    6 ar
  10    5   26 1
  11    6    7 ar
  12    7    9 1
  13    9   10 1
  14    9   14 1
  15   10   11 1
  16   10   29 1
  17   10   30 1
  18   11   12 1
  19   11   31 1
  20   11   32 1
  21   12   13 1
  22   12   15 2
  23   13   14 1
  24   13   33 1
  25   13   34 1
  26   14   35 1
  27   14   36 1
  28   15   16 1
  29   15   25 1
  30   16   17 3
  31   17   19 1
  32   18   19 ar
  33   18   23 ar
  34   18   37 1
  35   19   20 ar
  36   20   21 ar
  37   20   38 1
  38   21   22 ar
  39   21   24 1
  40   22   23 ar
  41   22   39 1
  42   25   40 1
  43   25   41 1
  44   25   42 1
  45   26   43 1
  46   26   44 1
  47   26   45 1

#	End of record

