#	Name: ASD03910027
#	Creating user name:	WinNT
#	Creation time:	15. 06. 2019 20:47

#	Modifying user name:	WinNT
#	Modification time:	15. 06. 2019 20:47

#	Program:	/corina/corina34_cracker 3.40 0067  02.08.2006

@<TRIPOS>MOLECULE
ASD03910027
  55   56    0    0    0
SMALL
NO_CHARGES


@<TRIPOS>ATOM
   1 C1            -0.9491     0.4532    -1.1091 C.ar    
   2 C2             0.0757     0.9407    -0.3189 C.ar    
   3 C3            -0.1524     2.0028     0.5368 C.ar    
   4 C4            -1.4053     2.5798     0.6050 C.ar    
   5 C5            -2.4366     2.0925    -0.1872 C.ar    
   6 C6            -2.2027     1.0298    -1.0500 C.ar    
   7 N7            -3.7071     2.6749    -0.1204 N.am    
   8 C8            -3.8303     4.0044     0.0629 C.2     
   9 C9            -5.1939     4.6454     0.0384 C.3     
  10 O10           -2.8435     4.6851     0.2477 O.2     
  11 C11           -6.0088     4.1372     1.1997 C.ar    
  12 C12           -6.8702     3.0701     1.0239 C.ar    
  13 C13           -7.6183     2.6024     2.0870 C.ar    
  14 C14           -7.5047     3.2044     3.3317 C.ar    
  15 C15           -6.6397     4.2750     3.5055 C.ar    
  16 C16           -5.8896     4.7353     2.4406 C.ar    
  17 O17           -8.2399     2.7465     4.3789 O.3     
  18 C18           -7.9924     3.3410     5.6546 C.3     
  19 C19           -8.2882     4.8171     5.5867 C.2     
  20 C20           -0.6962    -0.7045    -2.0402 C.3     
  21 C21            0.9673     2.5308     1.3961 C.3     
  22 O22           -8.6716     5.3095     4.5521 O.2     
  23 O23           -8.1257     5.5849     6.6756 O.3     
  24 O24           -5.0553     6.0641     0.1383 O.3     
  25 C25           -8.8932     2.6882     6.7049 C.3     
  26 C26           -6.5263     3.1318     6.0389 C.3     
  27 C27           -6.0910     6.7971    -0.5191 C.3     
  28 C28           -5.8420     8.2969    -0.3478 C.3     
  29 H29            1.0562     0.4907    -0.3699 H       
  30 H30           -1.5830     3.4088     1.2740 H       
  31 H31           -3.0026     0.6488    -1.6676 H       
  32 H32           -4.4993     2.1217    -0.2061 H       
  33 H33           -5.6966     4.3944    -0.8957 H       
  34 H34           -6.9586     2.6020     0.0547 H       
  35 H35           -8.2913     1.7691     1.9491 H       
  36 H36           -6.5494     4.7453     4.4735 H       
  37 H37           -5.2160     5.5687     2.5754 H       
  38 H38           -0.8975    -1.6405    -1.5192 H       
  39 H39           -1.3515    -0.6231    -2.9074 H       
  40 H40            0.3434    -0.6871    -2.3674 H       
  41 H41            1.4996     3.3151     0.8578 H       
  42 H42            0.5555     2.9389     2.3191 H       
  43 H43            1.6568     1.7205     1.6329 H       
  44 H44           -8.3280     6.5260     6.5834 H       
  45 H45           -8.6209     1.6385     6.8152 H       
  46 H46           -8.7669     3.1986     7.6597 H       
  47 H47           -9.9335     2.7623     6.3881 H       
  48 H48           -5.8852     3.4770     5.2279 H       
  49 H49           -6.3037     3.6972     6.9439 H       
  50 H50           -6.3456     2.0720     6.2190 H       
  51 H51           -6.0948     6.5483    -1.5803 H       
  52 H52           -7.0546     6.5365    -0.0814 H       
  53 H53           -4.8783     8.5576    -0.7856 H       
  54 H54           -6.6320     8.8560    -0.8493 H       
  55 H55           -5.8382     8.5458     0.7134 H       
@<TRIPOS>BOND
   1    1    2 ar
   2    1   20 1
   3    1    6 ar
   4    2    3 ar
   5    2   29 1
   6    3    4 ar
   7    3   21 1
   8    4    5 ar
   9    4   30 1
  10    5    6 ar
  11    5    7 1
  12    6   31 1
  13    7    8 am
  14    7   32 1
  15    8    9 1
  16    8   10 2
  17    9   11 1
  18    9   24 1
  19    9   33 1
  20   11   12 ar
  21   11   16 ar
  22   12   13 ar
  23   12   34 1
  24   13   14 ar
  25   13   35 1
  26   14   15 ar
  27   14   17 1
  28   15   16 ar
  29   15   36 1
  30   16   37 1
  31   17   18 1
  32   18   19 1
  33   18   25 1
  34   18   26 1
  35   19   22 2
  36   19   23 1
  37   20   38 1
  38   20   39 1
  39   20   40 1
  40   21   41 1
  41   21   42 1
  42   21   43 1
  43   23   44 1
  44   24   27 1
  45   25   45 1
  46   25   46 1
  47   25   47 1
  48   26   48 1
  49   26   49 1
  50   26   50 1
  51   27   28 1
  52   27   51 1
  53   27   52 1
  54   28   53 1
  55   28   54 1
  56   28   55 1

#	End of record

