#	Name: ASD01840490
#	Creating user name:	WinNT
#	Creation time:	15. 06. 2019 19:37

#	Modifying user name:	WinNT
#	Modification time:	15. 06. 2019 19:37

#	Program:	/corina/corina34_cracker 3.40 0067  02.08.2006

@<TRIPOS>MOLECULE
ASD01840490
  46   49    0    0    0
SMALL
NO_CHARGES


@<TRIPOS>ATOM
   1 C1            -0.4232     1.7004    -0.5135 C.ar    
   2 C2            -0.4548     0.3988    -0.9635 C.ar    
   3 N3             0.6028    -0.3811    -0.8186 N.ar    
   4 N4             1.6865     0.0202    -0.2668 N.ar    
   5 C5             0.7638     2.1633     0.0988 C.ar    
   6 C6             1.0834     3.4631     0.6594 C.2     
   7 C7             1.8304     1.2607     0.2054 C.ar    
   8 S8             3.1987     2.0357     0.9912 S.3     
   9 C9             2.3362     3.5509     1.1712 C.2     
  10 C10           -1.6169     2.6061    -0.6749 C.3     
  11 C11           -1.6991    -0.1380    -1.6226 C.3     
  12 N12            0.1865     4.5227     0.6705 N.pl3   
  13 C13            2.8946     4.7521     1.7902 C.2     
  14 O14            2.2220     5.7638     1.8717 O.2     
  15 N15            4.1537     4.7395     2.2706 N.am    
  16 C16            5.0426     5.7033     2.9370 C.3     
  17 C17            5.2412     3.7540     2.3651 C.3     
  18 C18            6.2316     4.9300     2.3501 C.3     
  19 F19            6.6126     5.3483     1.0706 F       
  20 C20            7.3922     4.7689     3.2978 C.ar    
  21 C21            7.6574     3.5343     3.8617 C.ar    
  22 C22            8.7213     3.3832     4.7314 C.ar    
  23 C23            9.5225     4.4659     5.0393 C.ar    
  24 C24            9.2590     5.7051     4.4746 C.ar    
  25 C25            8.1937     5.8530     3.5979 C.ar    
  26 O26           10.0454     6.7717     4.7762 O.3     
  27 C27           11.1266     6.5448     5.6825 C.3     
  28 H28           -2.2057     2.5980     0.2424 H       
  29 H29           -1.2775     3.6214    -0.8799 H       
  30 H30           -2.2308     2.2538    -1.5038 H       
  31 H31           -1.6472     0.0405    -2.6967 H       
  32 H32           -1.7762    -1.2090    -1.4356 H       
  33 H33           -2.5740     0.3664    -1.2124 H       
  34 H34           -0.7564     4.3617     0.5094 H       
  35 H35            0.5026     5.4240     0.8395 H       
  36 H36            4.9509     6.7180     2.5496 H       
  37 H37            4.9915     5.6606     4.0249 H       
  38 H38            5.2425     3.1975     3.3023 H       
  39 H39            5.3188     3.1081     1.4906 H       
  40 H40            7.0320     2.6869     3.6226 H       
  41 H41            8.9261     2.4182     5.1708 H       
  42 H42           10.3532     4.3475     5.7193 H       
  43 H43            7.9889     6.8159     3.1537 H       
  44 H44           11.6727     7.4754     5.8368 H       
  45 H45           10.7335     6.1918     6.6359 H       
  46 H46           11.7983     5.7941     5.2662 H       
@<TRIPOS>BOND
   1    1    2 ar
   2    1    5 ar
   3    1   10 1
   4    2   11 1
   5    2    3 ar
   6    3    4 ar
   7    4    7 ar
   8    5    7 ar
   9    5    6 1
  10    6    9 2
  11    6   12 1
  12    7    8 1
  13    8    9 1
  14    9   13 1
  15   10   28 1
  16   10   29 1
  17   10   30 1
  18   11   31 1
  19   11   32 1
  20   11   33 1
  21   12   34 1
  22   12   35 1
  23   13   14 2
  24   13   15 am
  25   15   16 1
  26   15   17 1
  27   16   18 1
  28   16   36 1
  29   16   37 1
  30   17   18 1
  31   17   38 1
  32   17   39 1
  33   18   19 1
  34   18   20 1
  35   20   21 ar
  36   20   25 ar
  37   21   22 ar
  38   21   40 1
  39   22   23 ar
  40   22   41 1
  41   23   24 ar
  42   23   42 1
  43   24   25 ar
  44   24   26 1
  45   25   43 1
  46   26   27 1
  47   27   44 1
  48   27   45 1
  49   27   46 1

#	End of record

