#	Name: ASD01120291
#	Creating user name:	WinNT
#	Creation time:	15. 06. 2019 18:59

#	Modifying user name:	WinNT
#	Modification time:	15. 06. 2019 18:59

#	Program:	/corina/corina34_cracker 3.40 0067  02.08.2006

@<TRIPOS>MOLECULE
ASD01120291
  39   41    0    0    0
SMALL
NO_CHARGES


@<TRIPOS>ATOM
   1 C1             0.3607     1.2514     0.6218 C.3     
   2 C2             0.2688    -0.2253     0.2321 C.3     
   3 O3            -1.0766    -0.7096     0.4842 O.3     
   4 C4            -1.3268    -2.0024     0.1921 C.2     
   5 O5            -0.4439    -2.7052    -0.2610 O.2     
   6 C6            -2.6639    -2.5606     0.4210 C.2     
   7 N7            -3.7477    -1.8666     0.9292 N.pl3   
   8 C8            -4.8242    -2.7195     0.9999 C.ar    
   9 C9            -4.3988    -3.9747     0.5239 C.ar    
  10 C10           -3.0395    -3.8426     0.1623 C.2     
  11 C11           -5.3088    -5.0486     0.4844 C.ar    
  12 C12           -6.6094    -4.8566     0.9139 C.ar    
  13 C13           -7.0181    -3.6161     1.3805 C.ar    
  14 C14           -6.1392    -2.5559     1.4260 C.ar    
  15 N15           -6.5948    -1.2398     1.9279 N.pl3   
  16 O16           -7.7455    -1.0950     2.3000 O.2     
  17 O17           -5.8189    -0.3017     1.9687 O.2     
  18 N18           -4.9022    -6.2948     0.0158 N.pl3   
  19 C19           -5.7574    -7.3949     0.1234 C.ar    
  20 C20           -5.8822    -8.2856    -0.9354 C.ar    
  21 C21           -6.7277    -9.3720    -0.8260 C.ar    
  22 C22           -7.4503    -9.5739     0.3369 C.ar    
  23 C23           -7.3280    -8.6883     1.3932 C.ar    
  24 C24           -6.4800    -7.6030     1.2916 C.ar    
  25 Cl25          -8.5126   -10.9404     0.4705 Cl      
  26 H26            1.3706     1.6150     0.4325 H       
  27 H27           -0.3500     1.8283     0.0299 H       
  28 H28            0.1268     1.3630     1.6805 H       
  29 H29            0.5027    -0.3369    -0.8267 H       
  30 H30            0.9795    -0.8021     0.8239 H       
  31 H31           -3.7481    -0.9329     1.1923 H       
  32 H32           -2.4093    -4.6217    -0.2406 H       
  33 H33           -7.3108    -5.6773     0.8855 H       
  34 H34           -8.0368    -3.4797     1.7122 H       
  35 H35           -4.0253    -6.3997    -0.3853 H       
  36 H36           -5.3189    -8.1283    -1.8432 H       
  37 H37           -6.8254   -10.0645    -1.6490 H       
  38 H38           -7.8933    -8.8481     2.2995 H       
  39 H39           -6.3847    -6.9124     2.1164 H       
@<TRIPOS>BOND
   1    1    2 1
   2    1   26 1
   3    1   27 1
   4    1   28 1
   5    2    3 1
   6    2   29 1
   7    2   30 1
   8    3    4 1
   9    4    5 2
  10    4    6 1
  11    6    7 1
  12    6   10 2
  13    7    8 1
  14    7   31 1
  15    8    9 ar
  16    8   14 ar
  17    9   10 1
  18    9   11 ar
  19   10   32 1
  20   11   12 ar
  21   11   18 1
  22   12   13 ar
  23   12   33 1
  24   13   14 ar
  25   13   34 1
  26   14   15 1
  27   15   16 2
  28   15   17 2
  29   18   19 1
  30   18   35 1
  31   19   20 ar
  32   19   24 ar
  33   20   21 ar
  34   20   36 1
  35   21   22 ar
  36   21   37 1
  37   22   23 ar
  38   22   25 1
  39   23   24 ar
  40   23   38 1
  41   24   39 1

#	End of record

