#	Name: ASD02198410
#	Creating user name:	WinNT
#	Creation time:	15. 06. 2019 20:19

#	Modifying user name:	WinNT
#	Modification time:	15. 06. 2019 20:19

#	Program:	/corina/corina34_cracker 3.40 0067  02.08.2006

@<TRIPOS>MOLECULE
ASD02198410
  39   42    0    0    0
SMALL
NO_CHARGES


@<TRIPOS>ATOM
   1 C1            -0.2212     1.0636    -0.3583 C.2     
   2 C2            -0.1225    -0.2833    -0.3741 C.2     
   3 S3             1.3858     1.7667    -0.2281 S.3     
   4 C4             2.1175     0.1678    -0.2016 C.2     
   5 C5             1.1664    -0.7668    -0.2876 C.2     
   6 S6             3.8457    -0.1536    -0.0805 S.o2    
   7 N7             4.4421    -0.2156    -1.6241 N.am    
   8 C8             4.3248     0.8960    -2.4640 C.ar    
   9 C9             4.0913     0.7190    -3.8441 C.ar    
  10 C10            3.9752     1.8591    -4.6768 C.ar    
  11 C11            4.0934     3.1465    -4.1184 C.ar    
  12 C12            4.3207     3.2855    -2.7681 C.ar    
  13 C13            4.4310     2.1677    -1.9463 C.ar    
  14 N14            3.9796    -0.5039    -4.3714 N.ar    
  15 C15            3.7630    -0.6767    -5.6528 C.ar    
  16 C16            3.6393     0.4011    -6.5265 C.ar    
  17 C17            3.7424     1.6782    -6.0522 C.ar    
  18 O18            4.4253     0.9924     0.5279 O.2     
  19 O19            3.9736    -1.4648     0.4521 O.2     
  20 C20           -1.4782     1.8251    -0.4434 C.2     
  21 O21           -2.7249     1.3137    -0.5493 O.3     
  22 C22           -1.6094     3.1793    -0.4245 C.2     
  23 N23           -2.9174     3.4591    -0.5241 N.2     
  24 C24           -3.5845     2.3418    -0.5988 C.2     
  25 O25            3.9840     4.2464    -4.9092 O.3     
  26 C26            4.1149     5.5190    -4.2723 C.3     
  27 H27           -0.9841    -0.9303    -0.4482 H       
  28 H28            1.3904    -1.8233    -0.2888 H       
  29 H29            4.8729    -1.0230    -1.9455 H       
  30 H30            4.4112     4.2732    -2.3409 H       
  31 H31            4.6095     2.2993    -0.8894 H       
  32 H32            3.6787    -1.6809    -6.0412 H       
  33 H33            3.4618     0.2275    -7.5775 H       
  34 H34            3.6491     2.5255    -6.7152 H       
  35 H35           -0.8069     3.8976    -0.3435 H       
  36 H36           -4.6576     2.2576    -0.6868 H       
  37 H37            3.3408     5.6263    -3.5125 H       
  38 H38            5.0964     5.5915    -3.8038 H       
  39 H39            4.0074     6.3097    -5.0148 H       
@<TRIPOS>BOND
   1    1    2 2
   2    1    3 1
   3    1   20 1
   4    2    5 1
   5    2   27 1
   6    3    4 1
   7    4    5 2
   8    4    6 1
   9    5   28 1
  10    6    7 am
  11    6   18 2
  12    6   19 2
  13    7    8 1
  14    7   29 1
  15    8    9 ar
  16    8   13 ar
  17    9   10 ar
  18    9   14 ar
  19   10   11 ar
  20   10   17 ar
  21   11   12 ar
  22   11   25 1
  23   12   13 ar
  24   12   30 1
  25   13   31 1
  26   14   15 ar
  27   15   16 ar
  28   15   32 1
  29   16   17 ar
  30   16   33 1
  31   17   34 1
  32   20   21 1
  33   20   22 2
  34   21   24 1
  35   22   23 1
  36   22   35 1
  37   23   24 2
  38   24   36 1
  39   25   26 1
  40   26   37 1
  41   26   38 1
  42   26   39 1

#	End of record

