#	Name: ASD02039450
#	Creating user name:	WinNT
#	Creation time:	15. 06. 2019 20:18

#	Modifying user name:	WinNT
#	Modification time:	15. 06. 2019 20:18

#	Program:	/corina/corina34_cracker 3.40 0067  02.08.2006

@<TRIPOS>MOLECULE
ASD02039450
  48   51    0    0    0
SMALL
NO_CHARGES


@<TRIPOS>ATOM
   1 C1             0.1498     1.1865     0.0761 C.ar    
   2 C2             0.4315    -0.1671     0.1949 C.ar    
   3 C3             1.2614     2.2023     0.0150 C.3     
   4 N4             1.7338     2.3267    -1.3662 N.am    
   5 C5             1.2465     3.3009    -2.1598 C.2     
   6 C6             0.1675     4.1775    -1.6723 C.2     
   7 C7            -0.4868     5.1304    -2.3969 C.2     
   8 N8            -0.3608     4.1803    -0.4217 N.2     
   9 C9            -1.2922     5.0876    -0.3602 C.2     
  10 N10           -1.3966     5.6970    -1.5698 N.pl3   
  11 O11            1.6977     3.4564    -3.2786 O.2     
  12 C12           -2.3264     6.7746    -1.9169 C.3     
  13 C13            2.7358     1.3921    -1.8846 C.3     
  14 C14           -0.6103    -1.0746     0.2480 C.ar    
  15 C15           -2.1745     0.6132     0.0632 C.ar    
  16 C16           -1.1748     1.5824     0.0092 C.ar    
  17 C17           -3.5983     1.0208    -0.0077 C.ar    
  18 C18           -4.6059     0.0566     0.0456 C.ar    
  19 C19           -5.9321     0.4416    -0.0204 C.ar    
  20 C20           -6.2611     1.7810    -0.1393 C.ar    
  21 C21           -5.2622     2.7434    -0.1927 C.ar    
  22 C22           -3.9349     2.3689    -0.1221 C.ar    
  23 N23           -1.8629    -0.6708     0.1869 N.ar    
  24 C24            2.3153     0.7013    -3.1926 C.3     
  25 C25            3.7688     0.8799    -3.6621 C.3     
  26 C26            3.8518     2.0725    -2.6948 C.3     
  27 F27           -4.2859    -1.2508     0.1611 F       
  28 F28           -7.5583     2.1526    -0.2039 F       
  29 F29           -5.5892     4.0491    -0.3087 F       
  30 H30            1.4549    -0.5085     0.2451 H       
  31 H31            0.8910     3.1674     0.3607 H       
  32 H32            2.0842     1.8792     0.6527 H       
  33 H33           -0.3123     5.3843    -3.4320 H       
  34 H34           -1.8878     5.3169     0.5110 H       
  35 H35           -1.8589     7.7378    -1.7123 H       
  36 H36           -2.5781     6.7105    -2.9755 H       
  37 H37           -3.2340     6.6774    -1.3211 H       
  38 H38            3.1041     0.7023    -1.1253 H       
  39 H39           -0.3943    -2.1287     0.3405 H       
  40 H40           -1.4296     2.6270    -0.0915 H       
  41 H41           -6.7126    -0.3037     0.0204 H       
  42 H42           -3.1585     3.1185    -0.1634 H       
  43 H43            2.0237    -0.3408    -3.0618 H       
  44 H44            1.5944     1.2735    -3.7765 H       
  45 H45            4.4208     0.0502    -3.3892 H       
  46 H46            3.8572     1.1617    -4.7113 H       
  47 H47            3.5510     3.0196    -3.1426 H       
  48 H48            4.8006     2.1374    -2.1621 H       
@<TRIPOS>BOND
   1    1    2 ar
   2    1    3 1
   3    1   16 ar
   4    2   14 ar
   5    2   30 1
   6    3    4 1
   7    3   31 1
   8    3   32 1
   9    4    5 am
  10    4   13 1
  11    5    6 1
  12    5   11 2
  13    6    7 2
  14    6    8 1
  15    7   10 1
  16    7   33 1
  17    8    9 2
  18    9   10 1
  19    9   34 1
  20   10   12 1
  21   12   35 1
  22   12   36 1
  23   12   37 1
  24   13   24 1
  25   13   26 1
  26   13   38 1
  27   14   23 ar
  28   14   39 1
  29   15   16 ar
  30   15   17 1
  31   15   23 ar
  32   16   40 1
  33   17   18 ar
  34   17   22 ar
  35   18   19 ar
  36   18   27 1
  37   19   20 ar
  38   19   41 1
  39   20   21 ar
  40   20   28 1
  41   21   22 ar
  42   21   29 1
  43   22   42 1
  44   24   25 1
  45   24   43 1
  46   24   44 1
  47   25   26 1
  48   25   45 1
  49   25   46 1
  50   26   47 1
  51   26   48 1

#	End of record

