#	Name: ASD07110013
#	Creating user name:	WinNT
#	Creation time:	15. 06. 2019 21:09

#	Modifying user name:	WinNT
#	Modification time:	15. 06. 2019 21:09

#	Program:	/corina/corina34_cracker 3.40 0067  02.08.2006

@<TRIPOS>MOLECULE
ASD07110013
 436  445    0    0    0
SMALL
NO_CHARGES


@<TRIPOS>ATOM
   1 C1           -26.1526   -17.0945     8.3089 C.2     
   2 O2           -27.1250   -17.3582     7.6338 O.2     
   3 N3           -27.5196   -15.3024     9.2169 N.3     
   4 C4           -26.1982   -15.9413     9.2780 C.3     
   5 C5           -25.8699   -20.0524     7.6238 C.2     
   6 O6           -26.6704   -19.8749     8.5174 O.2     
   7 N7           -25.0329   -17.8362     8.1964 N.am    
   8 C8           -24.8542   -18.9874     7.2995 C.3     
   9 C9           -23.4294   -19.5327     7.5322 C.3     
  10 C10          -23.0845   -19.0092     8.9515 C.3     
  11 C11          -23.7824   -17.6238     8.9478 C.3     
  12 C12          -26.3515   -23.5813     6.8003 C.2     
  13 O13          -25.2602   -23.6659     6.2779 O.2     
  14 N14          -25.8887   -21.2021     6.9207 N.am    
  15 C15          -26.8761   -22.2374     7.2360 C.3     
  16 C16          -28.1830   -21.9369     6.4994 C.3     
  17 O17          -27.9690   -22.0353     5.0900 O.3     
  18 C18          -27.7414   -26.9263     6.3085 C.2     
  19 O19          -28.8224   -26.7052     6.8120 O.2     
  20 N20          -27.0949   -24.6891     6.9912 N.am    
  21 C21          -26.5849   -25.9955     6.5677 C.3     
  22 C22          -25.6981   -26.5785     7.6698 C.3     
  23 C23          -24.4449   -25.7149     7.8262 C.3     
  24 C24          -23.6326   -26.2074     9.0256 C.3     
  25 C25          -23.5945   -25.8157     6.5583 C.3     
  26 C26          -26.0324   -27.2208     3.8004 C.2     
  27 O27          -26.7170   -26.2200     3.7782 O.2     
  28 N28          -27.5745   -28.0045     5.5172 N.am    
  29 C29          -26.3558   -28.3338     4.7636 C.3     
  30 C30          -26.6364   -29.6365     3.9853 C.3     
  31 C31          -28.1853   -29.6631     3.8992 C.3     
  32 C32          -28.5814   -29.0523     5.2690 C.3     
  33 C33          -25.6493   -26.5090     0.7825 C.2     
  34 O34          -26.4395   -27.4290     0.7849 O.2     
  35 N35          -24.9823   -27.3377     2.9637 N.am    
  36 C36          -24.7287   -26.3033     1.9577 C.3     
  37 C37          -23.2751   -26.3934     1.4888 C.3     
  38 C38          -22.3556   -26.0687     2.6378 C.2     
  39 C39          -21.8389   -24.8651     2.9314 C.2     
  40 N40          -21.0496   -24.9553     4.0455 N.pl3   
  41 C41          -21.0389   -26.2522     4.5079 C.ar    
  42 C42          -20.4162   -26.8813     5.5807 C.ar    
  43 C43          -20.6061   -28.2304     5.7870 C.ar    
  44 C44          -21.4135   -28.9701     4.9343 C.ar    
  45 C45          -22.0346   -28.3723     3.8738 C.ar    
  46 C46          -21.8612   -27.0055     3.6498 C.ar    
  47 C47          -25.8713   -25.2657    -2.6480 C.2     
  48 O48          -25.0836   -24.3492    -2.5449 O.2     
  49 N49          -25.5945   -25.6705    -0.2713 N.am    
  50 C50          -26.4894   -25.8705    -1.4138 C.3     
  51 C51          -27.8333   -25.1951    -1.1332 C.3     
  52 C52          -28.5286   -25.9101    -0.0035 C.ar    
  53 C53          -28.3160   -25.5082     1.3023 C.ar    
  54 C54          -28.9518   -26.1623     2.3398 C.ar    
  55 C55          -29.8047   -27.2229     2.0705 C.ar    
  56 O56          -30.4317   -27.8677     3.0894 O.3     
  57 C57          -30.0167   -27.6239     0.7595 C.ar    
  58 C58          -29.3825   -26.9632    -0.2748 C.ar    
  59 C59          -26.2163   -23.7533    -5.2733 C.2     
  60 O60          -26.8559   -23.2450    -4.3770 O.2     
  61 N61          -26.1938   -25.7433    -3.8664 N.am    
  62 C62          -25.7518   -25.1818    -5.1513 C.3     
  63 C63          -26.3868   -26.0373    -6.2677 C.3     
  64 C64          -27.6047   -26.6860    -5.5583 C.3     
  65 C65          -27.0429   -26.9189    -4.1312 C.3     
  66 C66          -25.9145   -21.0860    -7.8165 C.2     
  67 O67          -25.2742   -21.7747    -8.5824 O.2     
  68 N68          -25.9208   -23.0407    -6.3784 N.am    
  69 C69          -26.3722   -21.6521    -6.4970 C.3     
  70 C70          -25.6692   -17.7643    -9.3228 C.2     
  71 O71          -25.9410   -17.2097    -8.2791 O.2     
  72 N72          -26.2167   -19.8144    -8.1454 N.am    
  73 C73          -25.7718   -19.2641    -9.4282 C.3     
  74 C74          -26.7809   -19.6310   -10.5181 C.3     
  75 C75          -26.7937   -21.1487   -10.7113 C.3     
  76 C76          -27.7876   -21.5100   -11.7849 C.2     
  77 O77          -28.4209   -20.6427   -12.3386 O.2     
  78 O78          -27.9695   -22.7955   -12.1259 O.3     
  79 C79          -25.3293   -14.9699   -11.6550 C.2     
  80 O80          -25.5049   -15.6820   -12.6210 O.2     
  81 N81          -25.2754   -17.0393   -10.3886 N.am    
  82 C82          -25.1756   -15.5813   -10.2862 C.3     
  83 C83          -23.8102   -15.2028    -9.7089 C.3     
  84 C84          -23.7034   -15.7176    -8.2721 C.3     
  85 C85          -22.3380   -15.3391    -7.6949 C.3     
  86 C86          -22.2312   -15.8540    -6.2581 C.3     
  87 N87          -20.9202   -15.4906    -5.7039 N.3     
  88 C88          -24.7391   -11.6940   -13.1660 C.2     
  89 O89          -24.5827   -11.0706   -12.1375 O.2     
  90 N90          -25.2717   -13.6318   -11.8058 N.am    
  91 C91          -25.4211   -13.0375   -13.1364 C.3     
  92 C92          -26.9077   -12.8619   -13.4526 C.3     
  93 C93          -24.3370    -8.7774   -13.9598 C.2     
  94 O94          -25.4380    -8.9644   -13.4867 O.2     
  95 N95          -24.3030   -11.1852   -14.3353 N.am    
  96 C96          -23.5402    -9.9386   -14.4960 C.3     
  97 C97          -23.2865    -9.7482   -16.0063 C.3     
  98 C98          -24.4068   -10.6018   -16.6572 C.3     
  99 C99          -24.5063   -11.7897   -15.6645 C.3     
 100 C100         -24.1562    -5.1320   -14.1627 C.2     
 101 O101         -23.1504    -5.1264   -14.8404 O.2     
 102 N102         -23.8262    -7.5310   -14.0059 N.am    
 103 C103         -24.6008    -6.4022   -13.4846 C.3     
 104 C104         -24.3742    -6.2813   -11.9763 C.3     
 105 C105         -24.9284    -7.5236   -11.2761 C.3     
 106 C106         -22.8752    -6.1627   -11.6937 C.3     
 107 C107         -24.9734    -1.5845   -13.8306 C.2     
 108 O108         -25.7152    -1.7859   -12.8925 O.2     
 109 N109         -24.8763    -4.0021   -14.0162 N.am    
 110 C110         -24.3946    -2.7461   -14.5964 C.3     
 111 C111         -24.8311    -2.6601   -16.0603 C.3     
 112 C112         -24.1441    -3.7666   -16.8632 C.3     
 113 C113         -24.5741    -3.6819   -18.3051 C.2     
 114 O114         -25.3504    -2.8246   -18.6547 O.2     
 115 O115         -24.0946    -4.5590   -19.2010 O.3     
 116 C116         -25.2705     2.0244   -14.3318 C.2     
 117 O117         -24.8692     1.9551   -15.4742 O.2     
 118 N118         -24.6668    -0.3217   -14.1882 N.am    
 119 C119         -25.2295     0.8076   -13.4437 C.3     
 120 C120         -24.3568     1.0979   -12.2209 C.3     
 121 C121         -24.4152    -0.0905   -11.2590 C.3     
 122 C122         -23.5557     0.1955   -10.0546 C.2     
 123 O123         -22.9578     1.2423    -9.9739 O.2     
 124 O124         -23.4544    -0.7128    -9.0715 O.3     
 125 C125         -25.7681     5.6163   -13.8695 C.2     
 126 O126         -25.7217     5.5238   -12.6611 O.2     
 127 N127         -25.7531     3.1896   -13.8566 N.am    
 128 C128         -25.7929     4.3725   -14.7200 C.3     
 129 C129         -27.0746     4.3512   -15.5553 C.3     
 130 C130         -27.0423     3.1551   -16.5087 C.3     
 131 C131         -28.3048     3.1342   -17.3314 C.2     
 132 O132         -29.1474     3.9916   -17.1710 O.2     
 133 N133         -28.4974     2.1627   -18.2455 N.am    
 134 C134         -26.4098     9.1786   -14.3805 C.2     
 135 O135         -26.8410     8.9975   -15.4995 O.2     
 136 N136         -25.7975     6.8314   -14.4517 N.am    
 137 C137         -25.7734     8.0406   -13.6249 C.3     
 138 C138         -24.3247     8.3991   -13.2879 C.3     
 139 C139         -23.7171     7.2995   -12.4147 C.3     
 140 C140         -22.2901     7.6527   -12.0827 C.2     
 141 O141         -21.8086     8.6786   -12.5015 O.2     
 142 O142         -21.5541     6.8275   -11.3217 O.3     
 143 C143         -26.5808    12.8133   -14.0300 C.2     
 144 O144         -25.7615    12.8215   -13.1358 O.2     
 145 N145         -26.4997    10.3976   -13.8128 N.am    
 146 C146         -27.1184    11.5039   -14.5474 C.3     
 147 C147         -28.6351    11.4619   -14.3505 C.3     
 148 C148         -29.1969    10.1890   -14.9870 C.3     
 149 C149         -30.7136    10.1470   -14.7901 C.3     
 150 N150         -31.2516     8.9282   -15.3996 N.pl3   
 151 C151         -32.6013     8.6719   -15.3479 C.2     
 152 N152         -33.4023     9.5131   -14.7566 N.2     
 153 N153         -33.1061     7.5281   -15.9199 N.pl3   
 154 C154         -27.4903    16.3418   -14.3216 C.2     
 155 O155         -28.5382    16.0836   -14.8750 O.2     
 156 N156         -27.0104    13.9751   -14.5611 N.am    
 157 C157         -26.4878    15.2480   -14.0582 C.3     
 158 C158         -25.1746    15.5773   -14.7708 C.3     
 159 C159         -24.1347    14.5484   -14.4087 C.ar    
 160 C160         -23.9959    13.4065   -15.1753 C.ar    
 161 C161         -23.0421    12.4627   -14.8430 C.ar    
 162 C162         -22.2268    12.6610   -13.7445 C.ar    
 163 C163         -22.3650    13.8034   -12.9784 C.ar    
 164 C164         -23.3159    14.7492   -13.3132 C.ar    
 165 C165         -27.7872    19.2313   -15.6546 C.2     
 166 O166         -26.8528    18.7610   -16.2683 O.2     
 167 N167         -27.2225    17.6071   -13.9423 N.am    
 168 C168         -28.1455    18.6886   -14.2952 C.3     
 169 C169         -28.0420    19.8068   -13.2561 C.3     
 170 C170         -28.5588    19.3102   -11.9305 C.2     
 171 O171         -28.8962    18.1519   -11.8066 O.2     
 172 N172         -28.6461    20.1533   -10.8826 N.am    
 173 C173         -27.0760    21.6658   -17.5345 C.2     
 174 O174         -26.5402    21.9510   -16.4845 O.2     
 175 N175         -28.5051    20.2393   -16.1885 N.am    
 176 C176         -28.2274    20.6937   -17.5533 C.3     
 177 C177         -29.4682    21.3837   -18.1235 C.3     
 178 C178         -30.5719    20.3718   -18.2941 C.2     
 179 O179         -30.4132    19.2314   -17.9130 O.2     
 180 N180         -31.7352    20.7342   -18.8701 N.am    
 181 C181         -25.8628    24.2647   -19.7310 C.2     
 182 O182         -26.8415    24.1574   -20.4393 O.2     
 183 N183         -26.6417    22.2183   -18.6846 N.am    
 184 C184         -25.5955    23.2435   -18.6554 C.3     
 185 C185         -24.2340    22.5897   -18.8999 C.3     
 186 C186         -24.2887    21.7631   -20.1862 C.3     
 187 C187         -24.4613    22.6971   -21.3857 C.3     
 188 C188         -23.8875    21.6773   -17.7217 C.3     
 189 C189         -23.9103    26.8806   -21.3764 C.2     
 190 O190         -22.8999    26.5820   -20.7757 O.2     
 191 N191         -25.0143    25.2971   -19.9058 N.am    
 192 C192         -25.2230    26.2380   -21.0091 C.3     
 193 C193         -26.2165    27.3184   -20.5770 C.3     
 194 C194         -27.5639    26.6911   -20.3277 C.2     
 195 C195         -28.2824    26.7844   -19.1925 C.2     
 196 N196         -29.4342    26.0726   -19.3933 N.pl3   
 197 C197         -29.3793    25.5687   -20.6450 C.2     
 198 N198         -28.2602    25.9469   -21.1996 N.2     
 199 C199         -22.8414    29.7491   -23.3745 C.2     
 200 O200         -23.9795    30.1416   -23.5215 O.2     
 201 N201         -23.8591    27.7872   -22.3724 N.am    
 202 C202         -22.5830    28.4119   -22.7295 C.3     
 203 C203         -21.8302    27.5098   -23.7095 C.3     
 204 C204         -21.4584    26.1990   -23.0136 C.3     
 205 C205         -20.8169    25.2481   -24.0261 C.3     
 206 C206         -20.4675    26.4847   -21.8834 C.3     
 207 C207         -20.8989    32.1688   -25.3070 C.2     
 208 O208         -19.9551    31.4139   -25.4088 O.2     
 209 N209         -21.8078    30.5088   -23.7881 N.am    
 210 C210         -22.0590    31.8087   -24.4152 C.3     
 211 C211         -22.2189    32.8759   -23.3305 C.3     
 212 C212         -23.4701    32.5776   -22.5020 C.3     
 213 C213         -23.6275    33.6287   -21.4336 C.2     
 214 O214         -22.8185    34.5278   -21.3436 O.2     
 215 N215         -24.6672    33.5695   -20.5780 N.am    
 216 C216         -18.7045    34.3408   -26.0385 C.2     
 217 O217         -18.8622    34.5029   -24.8516 O.2     
 218 N218         -20.9101    33.3297   -25.9916 N.am    
 219 C219         -19.7823    33.6798   -26.8586 C.3     
 220 C220         -20.2567    34.6429   -27.9486 C.3     
 221 C221         -21.2449    33.9409   -28.8439 C.2     
 222 C222         -22.4928    34.3604   -29.1275 C.2     
 223 N223         -23.0396    33.4333   -29.9732 N.pl3   
 224 C224         -22.1062    32.4790   -30.1771 C.2     
 225 N225         -21.0337    32.7917   -29.5026 N.2     
 226 O226         -17.5692    34.7495   -26.6266 O.3     
 227 H227         -28.2534   -15.9717     9.3948 H       
 228 H228         -27.5756   -14.5255     9.8582 H       
 229 H229         -26.0186   -16.3085    10.2884 H       
 230 H230         -25.4305   -15.2141     9.0138 H       
 231 H231         -24.9676   -18.6706     6.2627 H       
 232 H232         -23.4254   -20.6225     7.5116 H       
 233 H233         -22.7367   -19.1295     6.7935 H       
 234 H234         -23.5028   -19.6591     9.7200 H       
 235 H235         -22.0071   -18.9016     9.0771 H       
 236 H236         -23.1592   -16.8838     8.4456 H       
 237 H237         -24.0017   -17.3072     9.9675 H       
 238 H238         -25.2485   -21.3441     6.2060 H       
 239 H239         -27.0592   -22.2498     8.3105 H       
 240 H240         -28.9444   -22.6557     6.8024 H       
 241 H241         -28.5161   -20.9289     6.7468 H       
 242 H242         -28.7572   -21.8569     4.5590 H       
 243 H243         -27.9677   -24.6214     7.4091 H       
 244 H244         -26.0007   -25.8789     5.6549 H       
 245 H245         -26.2492   -26.5928     8.6101 H       
 246 H246         -25.4080   -27.5948     7.4032 H       
 247 H247         -24.7366   -24.6769     7.9865 H       
 248 H248         -23.3409   -27.2453     8.8654 H       
 249 H249         -22.7398   -25.5921     9.1371 H       
 250 H250         -24.2384   -26.1355     9.9289 H       
 251 H251         -24.1512   -25.4089     5.7141 H       
 252 H252         -22.6731   -25.2492     6.6928 H       
 253 H253         -23.3534   -26.8609     6.3647 H       
 254 H254         -25.5233   -28.4821     5.4514 H       
 255 H255         -26.1954   -29.5933     2.9894 H       
 256 H256         -26.2658   -30.5016     4.5351 H       
 257 H257         -28.5414   -29.0455     3.0746 H       
 258 H258         -28.5541   -30.6847     3.8077 H       
 259 H259         -28.5407   -29.8104     6.0511 H       
 260 H260         -29.5784   -28.6151     5.2149 H       
 261 H261         -24.3945   -28.1066     3.0275 H       
 262 H262         -24.9096   -25.3206     2.3934 H       
 263 H263         -23.0699   -27.4032     1.1335 H       
 264 H264         -23.1097   -25.6827     0.6791 H       
 265 H265         -22.0191   -23.9596     2.3710 H       
 266 H266         -20.5693   -24.2157     4.4495 H       
 267 H267         -19.7857   -26.3143     6.2496 H       
 268 H268         -20.1214   -28.7171     6.6204 H       
 269 H269         -21.5519   -30.0267     5.1101 H       
 270 H270         -22.6611   -28.9544     3.2143 H       
 271 H271         -24.9625   -24.9347    -0.2733 H       
 272 H272         -26.6450   -26.9378    -1.5711 H       
 273 H273         -27.6661   -24.1543    -0.8563 H       
 274 H274         -28.4551   -25.2378    -2.0275 H       
 275 H275         -27.6520   -24.6825     1.5114 H       
 276 H276         -28.7849   -25.8485     3.3596 H       
 277 H277         -31.2921   -27.4925     3.3219 H       
 278 H278         -30.6799   -28.4495     0.5474 H       
 279 H279         -29.5507   -27.2722    -1.2959 H       
 280 H280         -24.6649   -25.2252    -5.2206 H       
 281 H281         -26.7129   -25.4091    -7.0967 H       
 282 H282         -25.6894   -26.8009    -6.6123 H       
 283 H283         -28.4551   -26.0045    -5.5406 H       
 284 H284         -27.8734   -27.6314    -6.0297 H       
 285 H285         -26.4477   -27.8316    -4.0996 H       
 286 H286         -27.8563   -26.9702    -3.4075 H       
 287 H287         -25.4091   -23.4473    -7.0952 H       
 288 H288         -25.9510   -21.0623    -5.6829 H       
 289 H289         -27.4605   -21.6181    -6.4449 H       
 290 H290         -26.7288   -19.2636    -7.5328 H       
 291 H291         -24.7960   -19.6781    -9.6822 H       
 292 H292         -27.7743   -19.2941   -10.2217 H       
 293 H293         -26.4974   -19.1480   -11.4532 H       
 294 H294         -25.8003   -21.4856   -11.0076 H       
 295 H295         -27.0772   -21.6316    -9.7762 H       
 296 H296         -28.6178   -22.9781   -12.8198 H       
 297 H297         -25.0580   -17.4829   -11.2234 H       
 298 H298         -25.9631   -15.2083    -9.6312 H       
 299 H299         -23.0227   -15.6508   -10.3149 H       
 300 H300         -23.7010   -14.1183    -9.7153 H       
 301 H301         -24.4909   -15.2696    -7.6662 H       
 302 H302         -23.8126   -16.8021    -8.2658 H       
 303 H303         -21.5505   -15.7872    -8.3009 H       
 304 H304         -22.2288   -14.2546    -7.7013 H       
 305 H305         -23.0187   -15.4060    -5.6521 H       
 306 H306         -22.3404   -16.9385    -6.2517 H       
 307 H307         -20.7682   -14.4946    -5.7581 H       
 308 H308         -20.8250   -15.8198    -4.7548 H       
 309 H309         -25.1313   -13.0623   -11.0332 H       
 310 H310         -24.9664   -13.6922   -13.8799 H       
 311 H311         -27.3425   -12.1375   -12.7639 H       
 312 H312         -27.0218   -12.5042   -14.4759 H       
 313 H313         -27.4179   -13.8189   -13.3432 H       
 314 H314         -22.5913   -10.0136   -13.9650 H       
 315 H315         -23.3892    -8.6996   -16.2854 H       
 316 H316         -22.3027   -10.1274   -16.2829 H       
 317 H317         -25.3439   -10.0471   -16.7031 H       
 318 H318         -24.1097   -10.9465   -17.6477 H       
 319 H319         -23.7283   -12.5250   -15.8698 H       
 320 H320         -25.4916   -12.2520   -15.7243 H       
 321 H321         -22.9456    -7.3815   -14.3842 H       
 322 H322         -25.6603    -6.5671   -13.6807 H       
 323 H323         -24.8857    -5.3946   -11.6019 H       
 324 H324         -24.4168    -8.4103   -11.6504 H       
 325 H325         -24.7669    -7.4375   -10.2015 H       
 326 H326         -25.9963    -7.6081   -11.4774 H       
 327 H327         -22.4649    -5.3232   -12.2550 H       
 328 H328         -22.7182    -5.9984   -10.6277 H       
 329 H329         -22.3744    -7.0820   -11.9972 H       
 330 H330         -25.7134    -4.0206   -13.5265 H       
 331 H331         -23.3066    -2.7131   -14.5392 H       
 332 H332         -25.9124    -2.7823   -16.1248 H       
 333 H333         -24.5504    -1.6885   -16.4667 H       
 334 H334         -23.0629    -3.6445   -16.7987 H       
 335 H335         -24.4249    -4.7383   -16.4568 H       
 336 H336         -24.3994    -4.4649   -20.1139 H       
 337 H337         -24.0735    -0.1606   -14.9385 H       
 338 H338         -26.2402     0.5609   -13.1184 H       
 339 H339         -23.3266     1.2573   -12.5393 H       
 340 H340         -24.7238     1.9919   -11.7167 H       
 341 H341         -25.4454    -0.2499   -10.9405 H       
 342 H342         -24.0483    -0.9845   -11.7632 H       
 343 H343         -22.8914    -0.4845    -8.3192 H       
 344 H344         -26.0740     3.2450   -12.9429 H       
 345 H345         -24.9274     4.3680   -15.3826 H       
 346 H346         -27.9375     4.2661   -14.8947 H       
 347 H347         -27.1480     5.2734   -16.1317 H       
 348 H348         -26.1795     3.2402   -17.1693 H       
 349 H349         -26.9690     2.2329   -15.9323 H       
 350 H350         -27.8235     1.4769   -18.3738 H       
 351 H351         -29.3100     2.1492   -18.7751 H       
 352 H352         -25.8346     6.9054   -15.4182 H       
 353 H353         -26.3272     7.8616   -12.7033 H       
 354 H354         -23.7494     8.4910   -14.2091 H       
 355 H355         -24.3008     9.3461   -12.7486 H       
 356 H356         -24.2924     7.2076   -11.4934 H       
 357 H357         -23.7409     6.3526   -12.9539 H       
 358 H358         -20.6442     7.0966   -11.1357 H       
 359 H359         -26.1548    10.5425   -12.9178 H       
 360 H360         -26.8870    11.4100   -15.6084 H       
 361 H361         -28.8634    11.4664   -13.2846 H       
 362 H362         -29.0871    12.3342   -14.8225 H       
 363 H363         -28.9686    10.1846   -16.0528 H       
 364 H364         -28.7449     9.3167   -14.5149 H       
 365 H365         -30.9419    10.1515   -13.7243 H       
 366 H366         -31.1656    11.0193   -15.2621 H       
 367 H367         -30.6555     8.3022   -15.8396 H       
 368 H368         -34.3546     9.3322   -14.7202 H       
 369 H369         -32.5100     6.9021   -16.3599 H       
 370 H370         -34.0584     7.3472   -15.8834 H       
 371 H371         -27.6656    13.9685   -15.2763 H       
 372 H372         -26.3094    15.1692   -12.9858 H       
 373 H373         -25.3342    15.5686   -15.8491 H       
 374 H374         -24.8315    16.5648   -14.4623 H       
 375 H375         -24.6329    13.2516   -16.0336 H       
 376 H376         -22.9342    11.5702   -15.4415 H       
 377 H377         -21.4821    11.9233   -13.4845 H       
 378 H378         -21.7283    13.9581   -12.1199 H       
 379 H379         -23.4214    15.6435   -12.7168 H       
 380 H380         -26.4185    17.8016   -13.4356 H       
 381 H381         -29.1653    18.3040   -14.3147 H       
 382 H382         -27.0000    20.1087   -13.1499 H       
 383 H383         -28.6364    20.6608   -13.5810 H       
 384 H384         -28.3763    21.0797   -10.9817 H       
 385 H385         -28.9788    19.8337   -10.0293 H       
 386 H386         -29.2057    20.6639   -15.6691 H       
 387 H387         -27.9695    19.8371   -18.1760 H       
 388 H388         -29.7955    22.1664   -17.4392 H       
 389 H389         -29.2266    21.8244   -19.0907 H       
 390 H390         -31.8621    21.6463   -19.1749 H       
 391 H391         -32.4456    20.0829   -18.9799 H       
 392 H392         -27.0219    21.9372   -19.5315 H       
 393 H393         -25.5938    23.7333   -17.6817 H       
 394 H394         -23.4719    23.3630   -18.9970 H       
 395 H395         -23.3625    21.1990   -20.2953 H       
 396 H396         -25.1311    21.0730   -20.1390 H       
 397 H397         -24.2212    22.1590   -22.3027 H       
 398 H398         -25.4929    23.0464   -21.4288 H       
 399 H399         -23.7926    23.5514   -21.2801 H       
 400 H400         -24.5887    20.8435   -17.6893 H       
 401 H401         -22.8740    21.2951   -17.8439 H       
 402 H402         -23.9528    22.2432   -16.7924 H       
 403 H403         -24.2654    25.4172   -19.3011 H       
 404 H404         -25.6200    25.7036   -21.8722 H       
 405 H405         -25.8618    27.7931   -19.6621 H       
 406 H406         -26.3043    28.0671   -21.3643 H       
 407 H407         -28.0033    27.3180   -18.2960 H       
 408 H408         -30.1551    25.9525   -18.7555 H       
 409 H409         -30.1379    24.9575   -21.1113 H       
 410 H410         -24.6673    28.0260   -22.8528 H       
 411 H411         -21.9830    28.5521   -21.8304 H       
 412 H412         -22.4656    27.2973   -24.5692 H       
 413 H413         -20.9232    28.0137   -24.0438 H       
 414 H414         -22.3566    25.7389   -22.6016 H       
 415 H415         -19.9188    25.7082   -24.4381 H       
 416 H416         -20.5521    24.3142   -23.5303 H       
 417 H417         -21.5229    25.0445   -24.8312 H       
 418 H418         -20.9245    27.1621   -21.1621 H       
 419 H419         -20.2026    25.5508   -21.3877 H       
 420 H420         -19.5693    26.9448   -22.2954 H       
 421 H421         -20.8976    30.1948   -23.6705 H       
 422 H422         -22.9712    31.7552   -25.0094 H       
 423 H423         -21.3431    32.8683   -22.6815 H       
 424 H424         -22.3171    33.8561   -23.7968 H       
 425 H425         -24.3458    32.5851   -23.1509 H       
 426 H426         -23.3719    31.5973   -22.0356 H       
 427 H427         -25.3141    32.8504   -20.6500 H       
 428 H428         -24.7685    34.2460   -19.8903 H       
 429 H429         -21.6649    33.9335   -25.9101 H       
 430 H430         -19.3847    32.7759   -27.3202 H       
 431 H431         -20.7346    35.5070   -27.4871 H       
 432 H432         -19.4019    34.9728   -28.5391 H       
 433 H433         -22.9704    35.2559   -28.7583 H       
 434 H434         -23.9311    33.4574   -30.3548 H       
 435 H435         -22.2260    31.6040   -30.7988 H       
 436 H436         -16.9071    35.1681   -26.0596 H       
@<TRIPOS>BOND
   1    1    2 2
   2    1    4 1
   3    1    7 am
   4    3    4 1
   5    3  227 1
   6    3  228 1
   7    4  229 1
   8    4  230 1
   9    5    6 2
  10    5   14 am
  11    5    8 1
  12    7    8 1
  13    7   11 1
  14    8    9 1
  15    8  231 1
  16    9   10 1
  17    9  232 1
  18    9  233 1
  19   10   11 1
  20   10  234 1
  21   10  235 1
  22   11  236 1
  23   11  237 1
  24   12   13 2
  25   12   15 1
  26   12   20 am
  27   14   15 1
  28   14  238 1
  29   15   16 1
  30   15  239 1
  31   16   17 1
  32   16  240 1
  33   16  241 1
  34   17  242 1
  35   18   19 2
  36   18   21 1
  37   18   28 am
  38   20   21 1
  39   20  243 1
  40   21   22 1
  41   21  244 1
  42   22   23 1
  43   22  245 1
  44   22  246 1
  45   23   24 1
  46   23   25 1
  47   23  247 1
  48   24  248 1
  49   24  249 1
  50   24  250 1
  51   25  251 1
  52   25  252 1
  53   25  253 1
  54   26   27 2
  55   26   35 am
  56   26   29 1
  57   28   29 1
  58   28   32 1
  59   29   30 1
  60   29  254 1
  61   30   31 1
  62   30  255 1
  63   30  256 1
  64   31   32 1
  65   31  257 1
  66   31  258 1
  67   32  259 1
  68   32  260 1
  69   33   34 2
  70   33   36 1
  71   33   49 am
  72   35   36 1
  73   35  261 1
  74   36   37 1
  75   36  262 1
  76   37   38 1
  77   37  263 1
  78   37  264 1
  79   38   39 2
  80   38   46 1
  81   39   40 1
  82   39  265 1
  83   40   41 1
  84   40  266 1
  85   41   42 ar
  86   41   46 ar
  87   42   43 ar
  88   42  267 1
  89   43   44 ar
  90   43  268 1
  91   44   45 ar
  92   44  269 1
  93   45   46 ar
  94   45  270 1
  95   47   48 2
  96   47   50 1
  97   47   61 am
  98   49   50 1
  99   49  271 1
 100   50   51 1
 101   50  272 1
 102   51   52 1
 103   51  273 1
 104   51  274 1
 105   52   53 ar
 106   52   58 ar
 107   53   54 ar
 108   53  275 1
 109   54   55 ar
 110   54  276 1
 111   55   56 1
 112   55   57 ar
 113   56  277 1
 114   57   58 ar
 115   57  278 1
 116   58  279 1
 117   59   60 2
 118   59   68 am
 119   59   62 1
 120   61   62 1
 121   61   65 1
 122   62   63 1
 123   62  280 1
 124   63   64 1
 125   63  281 1
 126   63  282 1
 127   64   65 1
 128   64  283 1
 129   64  284 1
 130   65  285 1
 131   65  286 1
 132   66   67 2
 133   66   69 1
 134   66   72 am
 135   68   69 1
 136   68  287 1
 137   69  288 1
 138   69  289 1
 139   70   71 2
 140   70   73 1
 141   70   81 am
 142   72   73 1
 143   72  290 1
 144   73   74 1
 145   73  291 1
 146   74   75 1
 147   74  292 1
 148   74  293 1
 149   75   76 1
 150   75  294 1
 151   75  295 1
 152   76   77 2
 153   76   78 1
 154   78  296 1
 155   79   80 2
 156   79   82 1
 157   79   90 am
 158   81   82 1
 159   81  297 1
 160   82   83 1
 161   82  298 1
 162   83   84 1
 163   83  299 1
 164   83  300 1
 165   84   85 1
 166   84  301 1
 167   84  302 1
 168   85   86 1
 169   85  303 1
 170   85  304 1
 171   86   87 1
 172   86  305 1
 173   86  306 1
 174   87  307 1
 175   87  308 1
 176   88   89 2
 177   88   91 1
 178   88   95 am
 179   90   91 1
 180   90  309 1
 181   91   92 1
 182   91  310 1
 183   92  311 1
 184   92  312 1
 185   92  313 1
 186   93   94 2
 187   93  102 am
 188   93   96 1
 189   95   96 1
 190   95   99 1
 191   96   97 1
 192   96  314 1
 193   97   98 1
 194   97  315 1
 195   97  316 1
 196   98   99 1
 197   98  317 1
 198   98  318 1
 199   99  319 1
 200   99  320 1
 201  100  101 2
 202  100  103 1
 203  100  109 am
 204  102  103 1
 205  102  321 1
 206  103  104 1
 207  103  322 1
 208  104  105 1
 209  104  106 1
 210  104  323 1
 211  105  324 1
 212  105  325 1
 213  105  326 1
 214  106  327 1
 215  106  328 1
 216  106  329 1
 217  107  108 2
 218  107  110 1
 219  107  118 am
 220  109  110 1
 221  109  330 1
 222  110  111 1
 223  110  331 1
 224  111  112 1
 225  111  332 1
 226  111  333 1
 227  112  113 1
 228  112  334 1
 229  112  335 1
 230  113  114 2
 231  113  115 1
 232  115  336 1
 233  116  117 2
 234  116  119 1
 235  116  127 am
 236  118  119 1
 237  118  337 1
 238  119  120 1
 239  119  338 1
 240  120  121 1
 241  120  339 1
 242  120  340 1
 243  121  122 1
 244  121  341 1
 245  121  342 1
 246  122  123 2
 247  122  124 1
 248  124  343 1
 249  125  126 2
 250  125  128 1
 251  125  136 am
 252  127  128 1
 253  127  344 1
 254  128  129 1
 255  128  345 1
 256  129  130 1
 257  129  346 1
 258  129  347 1
 259  130  131 1
 260  130  348 1
 261  130  349 1
 262  131  132 2
 263  131  133 am
 264  133  350 1
 265  133  351 1
 266  134  135 2
 267  134  137 1
 268  134  145 am
 269  136  137 1
 270  136  352 1
 271  137  138 1
 272  137  353 1
 273  138  139 1
 274  138  354 1
 275  138  355 1
 276  139  140 1
 277  139  356 1
 278  139  357 1
 279  140  141 2
 280  140  142 1
 281  142  358 1
 282  143  144 2
 283  143  146 1
 284  143  156 am
 285  145  146 1
 286  145  359 1
 287  146  147 1
 288  146  360 1
 289  147  148 1
 290  147  361 1
 291  147  362 1
 292  148  149 1
 293  148  363 1
 294  148  364 1
 295  149  150 1
 296  149  365 1
 297  149  366 1
 298  150  151 1
 299  150  367 1
 300  151  152 2
 301  151  153 1
 302  152  368 1
 303  153  369 1
 304  153  370 1
 305  154  155 2
 306  154  157 1
 307  154  167 am
 308  156  157 1
 309  156  371 1
 310  157  158 1
 311  157  372 1
 312  158  159 1
 313  158  373 1
 314  158  374 1
 315  159  160 ar
 316  159  164 ar
 317  160  161 ar
 318  160  375 1
 319  161  162 ar
 320  161  376 1
 321  162  163 ar
 322  162  377 1
 323  163  164 ar
 324  163  378 1
 325  164  379 1
 326  165  166 2
 327  165  168 1
 328  165  175 am
 329  167  168 1
 330  167  380 1
 331  168  169 1
 332  168  381 1
 333  169  170 1
 334  169  382 1
 335  169  383 1
 336  170  171 2
 337  170  172 am
 338  172  384 1
 339  172  385 1
 340  173  174 2
 341  173  176 1
 342  173  183 am
 343  175  176 1
 344  175  386 1
 345  176  177 1
 346  176  387 1
 347  177  178 1
 348  177  388 1
 349  177  389 1
 350  178  179 2
 351  178  180 am
 352  180  390 1
 353  180  391 1
 354  181  182 2
 355  181  184 1
 356  181  191 am
 357  183  184 1
 358  183  392 1
 359  184  185 1
 360  184  393 1
 361  185  186 1
 362  185  188 1
 363  185  394 1
 364  186  187 1
 365  186  395 1
 366  186  396 1
 367  187  397 1
 368  187  398 1
 369  187  399 1
 370  188  400 1
 371  188  401 1
 372  188  402 1
 373  189  190 2
 374  189  192 1
 375  189  201 am
 376  191  192 1
 377  191  403 1
 378  192  193 1
 379  192  404 1
 380  193  194 1
 381  193  405 1
 382  193  406 1
 383  194  195 2
 384  194  198 1
 385  195  196 1
 386  195  407 1
 387  196  197 1
 388  196  408 1
 389  197  198 2
 390  197  409 1
 391  199  200 2
 392  199  202 1
 393  199  209 am
 394  201  202 1
 395  201  410 1
 396  202  203 1
 397  202  411 1
 398  203  204 1
 399  203  412 1
 400  203  413 1
 401  204  205 1
 402  204  206 1
 403  204  414 1
 404  205  415 1
 405  205  416 1
 406  205  417 1
 407  206  418 1
 408  206  419 1
 409  206  420 1
 410  207  208 2
 411  207  210 1
 412  207  218 am
 413  209  210 1
 414  209  421 1
 415  210  211 1
 416  210  422 1
 417  211  212 1
 418  211  423 1
 419  211  424 1
 420  212  213 1
 421  212  425 1
 422  212  426 1
 423  213  214 2
 424  213  215 am
 425  215  427 1
 426  215  428 1
 427  216  217 2
 428  216  219 1
 429  216  226 1
 430  218  219 1
 431  218  429 1
 432  219  220 1
 433  219  430 1
 434  220  221 1
 435  220  431 1
 436  220  432 1
 437  221  222 2
 438  221  225 1
 439  222  223 1
 440  222  433 1
 441  223  224 1
 442  223  434 1
 443  224  225 2
 444  224  435 1
 445  226  436 1

#	End of record

