#	Name: ASD01850064
#	Creating user name:	WinNT
#	Creation time:	15. 06. 2019 19:38

#	Modifying user name:	WinNT
#	Modification time:	15. 06. 2019 19:38

#	Program:	/corina/corina34_cracker 3.40 0067  02.08.2006

@<TRIPOS>MOLECULE
ASD01850064
  56   59    0    0    0
SMALL
NO_CHARGES


@<TRIPOS>ATOM
   1 C1            -6.7769     6.0895     0.8424 C.ar    
   2 C2            -7.6461     6.1435     1.9172 C.ar    
   3 C3            -7.3900     5.3956     3.0512 C.ar    
   4 C4            -6.2656     4.5940     3.1113 C.ar    
   5 C5            -5.3964     4.5396     2.0375 C.ar    
   6 C6            -5.6542     5.2828     0.9012 C.ar    
   7 C7            -4.3852     2.1862     0.0533 C.3     
   8 N8            -4.4679     2.3616     1.5054 N.am    
   9 C9            -5.7759     2.3576    -0.5612 C.3     
  10 C10           -4.8173     1.3235     2.2907 C.2     
  11 C11           -5.0147     1.5309     3.7702 C.3     
  12 O12           -4.9728     0.2224     1.8067 O.2     
  13 C13           -5.8546     0.3846     4.3382 C.3     
  14 C14           -3.6525     1.5614     4.4671 C.3     
  15 C15           -3.8554     1.8070     5.9655 C.3     
  16 N16           -4.7791     0.7920     6.4903 N.am    
  17 C17           -6.0825     0.6168     5.8352 C.3     
  18 S18           -4.3588    -0.1372     7.7950 S.o2    
  19 C19           -4.8990     0.7162     9.2388 C.ar    
  20 C20           -6.1505     0.4856     9.7316 C.ar    
  21 C21           -6.5783     1.1636    10.8787 C.ar    
  22 C22           -5.7129     2.0763    11.5119 C.ar    
  23 C23           -4.4411     2.2907    10.9860 C.ar    
  24 C24           -4.0445     1.6133     9.8681 C.ar    
  25 C25           -7.8129     1.1618    11.6566 C.2     
  26 N26           -7.6625     1.9985    12.6434 N.2     
  27 N27           -6.3912     2.5794    12.5911 N.pl3   
  28 O28           -5.1403    -1.3212     7.7127 O.2     
  29 O29           -2.9386    -0.1450     7.8413 O.2     
  30 C30           -4.1707     3.6653     2.1038 C.3     
  31 Cl31          -7.0981     7.0280    -0.5822 Cl      
  32 H32           -8.5245     6.7701     1.8704 H       
  33 H33           -8.0684     5.4379     3.8904 H       
  34 H34           -6.0658     4.0101     3.9976 H       
  35 H35           -4.9751     5.2402     0.0625 H       
  36 H36           -3.7088     2.9318    -0.3648 H       
  37 H37           -4.0092     1.1880    -0.1714 H       
  38 H38           -5.7007     2.3154    -1.6477 H       
  39 H39           -6.4289     1.5583    -0.2108 H       
  40 H40           -6.1887     3.3212    -0.2626 H       
  41 H41           -5.5299     2.4767     3.9387 H       
  42 H42           -6.8157     0.3489     3.8252 H       
  43 H43           -5.3286    -0.5588     4.1923 H       
  44 H44           -3.1472     0.6069     4.3200 H       
  45 H45           -3.0463     2.3633     4.0458 H       
  46 H46           -2.8980     1.7313     6.4811 H       
  47 H47           -4.2780     2.7999     6.1192 H       
  48 H48           -6.6867     1.5127     5.9782 H       
  49 H49           -6.5945    -0.2442     6.2648 H       
  50 H50           -6.8073    -0.2160     9.2389 H       
  51 H51           -3.7688     2.9886    11.4629 H       
  52 H52           -3.0573     1.7825     9.4642 H       
  53 H53           -8.6940     0.5721    11.4509 H       
  54 H54           -6.0450     3.2333    13.2184 H       
  55 H55           -3.3562     4.1394     1.5562 H       
  56 H56           -3.8777     3.5290     3.1448 H       
@<TRIPOS>BOND
   1    1    2 ar
   2    1   31 1
   3    1    6 ar
   4    2    3 ar
   5    2   32 1
   6    3    4 ar
   7    3   33 1
   8    4    5 ar
   9    4   34 1
  10    5    6 ar
  11    5   30 1
  12    6   35 1
  13    7    8 1
  14    7    9 1
  15    7   36 1
  16    7   37 1
  17    8   10 am
  18    8   30 1
  19    9   38 1
  20    9   39 1
  21    9   40 1
  22   10   11 1
  23   10   12 2
  24   11   13 1
  25   11   14 1
  26   11   41 1
  27   13   17 1
  28   13   42 1
  29   13   43 1
  30   14   15 1
  31   14   44 1
  32   14   45 1
  33   15   16 1
  34   15   46 1
  35   15   47 1
  36   16   17 1
  37   16   18 am
  38   17   48 1
  39   17   49 1
  40   18   19 1
  41   18   28 2
  42   18   29 2
  43   19   20 ar
  44   19   24 ar
  45   20   21 ar
  46   20   50 1
  47   21   22 ar
  48   21   25 1
  49   22   23 ar
  50   22   27 1
  51   23   24 ar
  52   23   51 1
  53   24   52 1
  54   25   26 2
  55   25   53 1
  56   26   27 1
  57   27   54 1
  58   30   55 1
  59   30   56 1

#	End of record

