#	Name: ASD01881925
#	Creating user name:	WinNT
#	Creation time:	15. 06. 2019 19:43

#	Modifying user name:	WinNT
#	Modification time:	15. 06. 2019 19:43

#	Program:	/corina/corina34_cracker 3.40 0067  02.08.2006

@<TRIPOS>MOLECULE
ASD01881925
  44   47    0    0    0
SMALL
NO_CHARGES


@<TRIPOS>ATOM
   1 N1            -0.0154     1.2839     0.0091 N.pl3   
   2 N2             0.0021    -0.0041     0.0020 N.2     
   3 N3             1.2033    -0.4649    -0.0119 N.2     
   4 C4             2.0741     0.5645    -0.0147 C.ar    
   5 C5             1.2843     1.7298    -0.0009 C.ar    
   6 C6             3.4670     0.6759    -0.0271 C.ar    
   7 C7             4.0484     1.9285    -0.0255 C.ar    
   8 C8             3.2560     3.0739    -0.0118 C.ar    
   9 C9             1.8924     2.9784    -0.0004 C.ar    
  10 O10            5.4033     2.0444    -0.0370 O.3     
  11 C11            5.9411     3.3683    -0.0346 C.3     
  12 C12            7.4694     3.2979    -0.0487 C.3     
  13 N13            7.9204     2.6975    -1.3113 N.3     
  14 C14            9.3765     2.8278    -1.4662 C.3     
  15 C15            9.8101     2.1383    -2.7625 C.3     
  16 O16            9.0955     2.7088    -3.8621 O.3     
  17 C17            7.6744     2.5989    -3.7443 C.3     
  18 C18            7.2192     3.2931    -2.4579 C.3     
  19 C19           -1.2133     2.1272     0.0196 C.3     
  20 C20           -1.6228     2.4135     1.4657 C.3     
  21 C21           -2.7884     3.3784     1.6921 C.3     
  22 C22           -2.9777     1.8797     1.9352 C.3     
  23 Br23           4.5472    -0.8761    -0.0451 Br      
  24 H24            3.7236     4.0474    -0.0103 H       
  25 H25            1.2882     3.8735     0.0099 H       
  26 H26            5.5939     3.9031    -0.9187 H       
  27 H27            5.6098     3.8935     0.8612 H       
  28 H28            7.8803     4.3034     0.0426 H       
  29 H29            7.8128     2.6879     0.7868 H       
  30 H30            9.6451     3.8834    -1.5080 H       
  31 H31            9.8762     2.3578    -0.6191 H       
  32 H32           10.8805     2.2815    -2.9104 H       
  33 H33            9.5902     1.0726    -2.6990 H       
  34 H34            7.2002     3.0752    -4.6024 H       
  35 H35            7.3924     1.5466    -3.7094 H       
  36 H36            6.1440     3.1626    -2.3349 H       
  37 H37            7.4532     4.3561    -2.5156 H       
  38 H38           -1.0007     3.0667    -0.4906 H       
  39 H39           -2.0254     1.6113    -0.4926 H       
  40 H40           -0.8089     2.4286     2.1906 H       
  41 H41           -2.7415     4.0280     2.5661 H       
  42 H42           -3.2635     3.8093     0.8108 H       
  43 H43           -3.5773     1.3246     1.2137 H       
  44 H44           -3.0553     1.5434     2.9691 H       
@<TRIPOS>BOND
   1    1    2 1
   2    1    5 1
   3    1   19 1
   4    2    3 2
   5    3    4 1
   6    4    5 ar
   7    4    6 ar
   8    5    9 ar
   9    6    7 ar
  10    6   23 1
  11    7    8 ar
  12    7   10 1
  13    8    9 ar
  14    8   24 1
  15    9   25 1
  16   10   11 1
  17   11   12 1
  18   11   26 1
  19   11   27 1
  20   12   13 1
  21   12   28 1
  22   12   29 1
  23   13   14 1
  24   13   18 1
  25   14   15 1
  26   14   30 1
  27   14   31 1
  28   15   16 1
  29   15   32 1
  30   15   33 1
  31   16   17 1
  32   17   18 1
  33   17   34 1
  34   17   35 1
  35   18   36 1
  36   18   37 1
  37   19   20 1
  38   19   38 1
  39   19   39 1
  40   20   21 1
  41   20   22 1
  42   20   40 1
  43   21   22 1
  44   21   41 1
  45   21   42 1
  46   22   43 1
  47   22   44 1

#	End of record

