#	Name: ASD01814807
#	Creating user name:	WinNT
#	Creation time:	15. 06. 2019 19:33

#	Modifying user name:	WinNT
#	Modification time:	15. 06. 2019 19:33

#	Program:	/corina/corina34_cracker 3.40 0067  02.08.2006

@<TRIPOS>MOLECULE
ASD01814807
  57   60    0    0    0
SMALL
NO_CHARGES


@<TRIPOS>ATOM
   1 C1             0.1120     0.9382     0.3823 C.3     
   2 C2            -0.0682    -0.5234     0.0622 C.2     
   3 C3            -1.3209    -1.0434     0.0057 C.2     
   4 C4            -2.5143    -0.1596     0.2623 C.3     
   5 C5            -2.9309    -0.2845     1.7052 C.ar    
   6 C6            -3.7365    -1.3358     2.1023 C.ar    
   7 C7            -4.1204    -1.4527     3.4239 C.ar    
   8 C8            -3.6961    -0.5135     4.3542 C.ar    
   9 C9            -2.8869     0.5408     3.9526 C.ar    
  10 C10           -2.5021     0.6494     2.6305 C.ar    
  11 N11           -4.0844    -0.6291     5.6962 N.pl3   
  12 C12           -3.7479     0.2150     6.6976 C.2     
  13 C13           -4.3212    -0.2449     7.8338 C.2     
  14 C14           -5.0316    -1.4081     7.5176 C.2     
  15 N15           -4.8946    -1.6363     6.2362 N.2     
  16 C16           -1.5057    -2.3939    -0.2897 C.2     
  17 C17           -0.3881    -3.1923    -0.5239 C.2     
  18 C18           -0.5416    -4.6208    -0.8389 C.2     
  19 O19           -1.6502    -5.0886    -1.0175 O.2     
  20 N20            0.5461    -5.4115    -0.9297 N.am    
  21 C21            0.4055    -6.8035    -1.3641 C.3     
  22 H22           -0.5352    -7.2076    -0.9903 H       
  23 C23            0.4149    -6.8641    -2.8929 C.3     
  24 C24            0.2681    -8.3179    -3.3466 C.3     
  25 O25            0.2769    -8.3745    -4.7744 O.3     
  26 C26            1.4325    -9.1439    -2.7963 C.3     
  27 C27            1.4231    -9.0833    -1.2675 C.3     
  28 C28            1.5699    -7.6296    -0.8138 C.3     
  29 H29            2.5107    -7.2255    -1.1877 H       
  30 O30            1.5611    -7.5730     0.6140 O.3     
  31 C31            0.9007    -2.6029    -0.4536 C.2     
  32 O32            1.8942    -3.2797    -0.6548 O.2     
  33 N33            1.0224    -1.2923    -0.1694 N.am    
  34 H34            1.1751     1.1784     0.3977 H       
  35 H35           -0.3856     1.5406    -0.3776 H       
  36 H36           -0.3231     1.1526     1.3584 H       
  37 H37           -2.2518     0.8765     0.0483 H       
  38 H38           -3.3386    -0.4661    -0.3816 H       
  39 H39           -4.0663    -2.0661     1.3782 H       
  40 H40           -4.7502    -2.2737     3.7333 H       
  41 H41           -2.5556     1.2731     4.6739 H       
  42 H42           -1.8690     1.4668     2.3183 H       
  43 H43           -3.1319     1.0975     6.6070 H       
  44 H44           -4.2441     0.2063     8.8120 H       
  45 H45           -5.5986    -2.0116     8.2109 H       
  46 H46           -2.4995    -2.8142    -0.3358 H       
  47 H47            1.4220    -5.0589    -0.7074 H       
  48 H48           -0.4146    -6.2756    -3.2849 H       
  49 H49            1.3557    -6.4600    -3.2668 H       
  50 H50           -0.6726    -8.7220    -2.9727 H       
  51 H51            0.1875    -9.2680    -5.1332 H       
  52 H52            1.3279   -10.1796    -3.1195 H       
  53 H53            2.3733    -8.7399    -3.1702 H       
  54 H54            0.4823    -9.4874    -0.8937 H       
  55 H55            2.2526    -9.6718    -0.8755 H       
  56 H56            2.2737    -8.0756     1.0319 H       
  57 H57            1.9055    -0.8933    -0.1264 H       
@<TRIPOS>BOND
   1    1    2 1
   2    1   34 1
   3    1   35 1
   4    1   36 1
   5    2   33 1
   6    2    3 2
   7    3    4 1
   8    3   16 1
   9    4    5 1
  10    4   37 1
  11    4   38 1
  12    5   10 ar
  13    5    6 ar
  14    6    7 ar
  15    6   39 1
  16    7    8 ar
  17    7   40 1
  18    8    9 ar
  19    8   11 1
  20    9   10 ar
  21    9   41 1
  22   10   42 1
  23   11   15 1
  24   11   12 1
  25   12   13 2
  26   12   43 1
  27   13   14 1
  28   13   44 1
  29   14   15 2
  30   14   45 1
  31   16   17 2
  32   16   46 1
  33   17   18 1
  34   17   31 1
  35   18   19 2
  36   18   20 am
  37   20   21 1
  38   20   47 1
  39   21   22 1
  40   21   28 1
  41   21   23 1
  42   23   24 1
  43   23   48 1
  44   23   49 1
  45   24   25 1
  46   24   26 1
  47   24   50 1
  48   25   51 1
  49   26   27 1
  50   26   52 1
  51   26   53 1
  52   27   28 1
  53   27   54 1
  54   27   55 1
  55   28   29 1
  56   28   30 1
  57   30   56 1
  58   31   32 2
  59   31   33 am
  60   33   57 1

#	End of record

