#	Name: ASD01913754
#	Creating user name:	WinNT
#	Creation time:	15. 06. 2019 20:02

#	Modifying user name:	WinNT
#	Modification time:	15. 06. 2019 20:02

#	Program:	/corina/corina34_cracker 3.40 0067  02.08.2006

@<TRIPOS>MOLECULE
ASD01913754
  49   50    0    0    0
SMALL
NO_CHARGES


@<TRIPOS>ATOM
   1 O1            -0.0163     1.3508     0.0095 O.3     
   2 C2             0.0021    -0.0041     0.0020 C.ar    
   3 C3            -1.1990    -0.7061     0.0097 C.ar    
   4 C4            -1.1741    -2.0858     0.0021 C.ar    
   5 C5             0.0719    -2.7294    -0.0133 C.ar    
   6 C6             1.2332    -1.9554    -0.0202 C.ar    
   7 N7             1.1631    -0.6409    -0.0179 N.ar    
   8 C8             0.1537    -4.2032    -0.0215 C.2     
   9 N9             1.3564    -4.8113    -0.0363 N.am    
  10 O10           -0.8638    -4.8687    -0.0150 O.2     
  11 C11            1.2480     2.0168     0.0010 C.3     
  12 C12            1.0303     3.5080     0.0111 C.ar    
  13 C13            0.9391     4.2038     1.2068 C.ar    
  14 C14            0.7397     5.5711     1.1768 C.ar    
  15 N15            0.6360     6.2126     0.0294 N.ar    
  16 C16            0.7177     5.5835    -1.1267 C.ar    
  17 C17            0.9222     4.2175    -1.1752 C.ar    
  18 C18           -2.5128     0.0320     0.0267 C.3     
  19 C19            1.4377    -6.2740    -0.0444 C.3     
  20 C20            2.9061    -6.7032    -0.0608 C.3     
  21 C21            2.9910    -8.2308    -0.0693 C.3     
  22 C22            2.2870    -8.7738    -1.3146 C.3     
  23 C23            4.4595    -8.6600    -0.0858 C.3     
  24 C24            2.3113    -8.7863     1.1838 C.3     
  25 H25           -2.0913    -2.6559     0.0081 H       
  26 H26            2.1986    -2.4396    -0.0317 H       
  27 H27            2.1682    -4.2804    -0.0415 H       
  28 H28            1.8174     1.7268     0.8840 H       
  29 H29            1.8004     1.7363    -0.8958 H       
  30 H30            1.0226     3.6840     2.1498 H       
  31 H31            0.6676     6.1204     2.1039 H       
  32 H32            0.6276     6.1427    -2.0462 H       
  33 H33            0.9885     3.7079    -2.1251 H       
  34 H34           -2.8395     0.2158    -0.9968 H       
  35 H35           -3.2605    -0.5688     0.5444 H       
  36 H36           -2.3886     0.9830     0.5448 H       
  37 H37            0.9534    -6.6698     0.8484 H       
  38 H38            0.9361    -6.6608    -0.9315 H       
  39 H39            3.3904    -6.3074    -0.9536 H       
  40 H40            3.4077    -6.3164     0.8263 H       
  41 H41            2.7712    -8.3780    -2.2073 H       
  42 H42            2.3474    -9.8621    -1.3206 H       
  43 H43            1.2408    -8.4680    -1.3028 H       
  44 H44            4.9610    -8.2732     0.8013 H       
  45 H45            4.5199    -9.7483    -0.0919 H       
  46 H46            4.9437    -8.2642    -0.9785 H       
  47 H47            1.2651    -8.4806     1.1955 H       
  48 H48            2.3717    -9.8746     1.1777 H       
  49 H49            2.8128    -8.3995     2.0709 H       
@<TRIPOS>BOND
   1    1    2 1
   2    1   11 1
   3    2    3 ar
   4    2    7 ar
   5    3    4 ar
   6    3   18 1
   7    4    5 ar
   8    4   25 1
   9    5    6 ar
  10    5    8 1
  11    6    7 ar
  12    6   26 1
  13    8    9 am
  14    8   10 2
  15    9   19 1
  16    9   27 1
  17   11   12 1
  18   11   28 1
  19   11   29 1
  20   12   13 ar
  21   12   17 ar
  22   13   14 ar
  23   13   30 1
  24   14   15 ar
  25   14   31 1
  26   15   16 ar
  27   16   17 ar
  28   16   32 1
  29   17   33 1
  30   18   34 1
  31   18   35 1
  32   18   36 1
  33   19   20 1
  34   19   37 1
  35   19   38 1
  36   20   21 1
  37   20   39 1
  38   20   40 1
  39   21   22 1
  40   21   23 1
  41   21   24 1
  42   22   41 1
  43   22   42 1
  44   22   43 1
  45   23   44 1
  46   23   45 1
  47   23   46 1
  48   24   47 1
  49   24   48 1
  50   24   49 1

#	End of record

