#	Name: ASD01148490
#	Creating user name:	WinNT
#	Creation time:	15. 06. 2019 19:02

#	Modifying user name:	WinNT
#	Modification time:	15. 06. 2019 19:02

#	Program:	/corina/corina34_cracker 3.40 0067  02.08.2006

@<TRIPOS>MOLECULE
ASD01148490
  58   62    0    0    0
SMALL
NO_CHARGES


@<TRIPOS>ATOM
   1 C1            -0.0180     1.4351     0.0450 C.ar    
   2 C2            -0.0166     0.0527     0.0405 C.ar    
   3 C3             1.1811    -0.6372     0.0175 C.ar    
   4 C4             2.3774     0.0553    -0.0013 C.ar    
   5 C5             2.3760     1.4376     0.0023 C.ar    
   6 C6             1.1783     2.1275     0.0267 C.ar    
   7 C7             3.6801     2.1925    -0.0178 C.3     
   8 O8             4.6901     1.4587    -0.7394 O.3     
   9 C9             3.5607     3.4817    -0.8651 C.3     
  10 C10            4.0473     3.0268    -2.2280 C.2     
  11 N11            4.6600     1.8982    -2.0830 N.2     
  12 C12            3.8539     3.7470    -3.4982 C.ar    
  13 C13            4.3769     3.1929    -4.7446 C.ar    
  14 C14            3.1686     4.9538    -3.5196 C.ar    
  15 C15            2.9725     5.6514    -4.6983 C.ar    
  16 C16            3.4521     5.1744    -5.9102 C.ar    
  17 C17            4.1764     3.9064    -5.9499 C.ar    
  18 C18            3.2273     5.9397    -7.1502 C.2     
  19 O19            3.7389     5.5745    -8.1912 O.2     
  20 N20            2.4549     7.0439    -7.1299 N.am    
  21 C21            4.6776     3.3867    -7.1501 C.ar    
  22 C22            5.0690     1.9754    -4.7712 C.ar    
  23 C23            4.1465     2.5120     1.4040 C.3     
  24 F24            4.3114     1.3212     2.1194 F       
  25 F25            5.3649     3.1975     1.3521 F       
  26 F26            3.1894     3.3096     2.0405 F       
  27 N27            2.2413     7.7711    -8.3081 N.pl3   
  28 C28            1.3318     7.2537    -9.3335 C.3     
  29 C29            2.8953     8.9894    -8.5052 C.ar    
  30 C30            2.6847     9.7117    -9.6729 C.ar    
  31 C31            3.3327    10.9162    -9.8643 C.ar    
  32 C32            4.1904    11.4034    -8.8952 C.ar    
  33 C33            4.4027    10.6866    -7.7318 C.ar    
  34 C34            3.7536     9.4842    -7.5314 C.ar    
  35 C35            5.5399     1.4944    -5.9567 C.ar    
  36 C36            5.3475     2.1993    -7.1419 C.ar    
  37 H37           -0.9537     1.9741     0.0584 H       
  38 H38           -0.9512    -0.4883     0.0552 H       
  39 H39            1.1822    -1.7172     0.0147 H       
  40 H40            3.3131    -0.4837    -0.0185 H       
  41 H41            1.1772     3.2075     0.0291 H       
  42 H42            2.5247     3.8166    -0.9161 H       
  43 H43            4.2033     4.2671    -0.4673 H       
  44 H44            2.7797     5.3569    -2.5962 H       
  45 H45            2.4341     6.5874    -4.6748 H       
  46 H46            2.0468     7.3352    -6.2995 H       
  47 H47            4.5340     3.9231    -8.0764 H       
  48 H48            5.2290     1.4213    -3.8581 H       
  49 H49            0.3227     7.6183    -9.1416 H       
  50 H50            1.6604     7.5939   -10.3156 H       
  51 H51            1.3358     6.1641    -9.3064 H       
  52 H52            2.0152     9.3316   -10.4303 H       
  53 H53            3.1696    11.4781   -10.7721 H       
  54 H54            4.6959    12.3456    -9.0474 H       
  55 H55            5.0735    11.0698    -6.9770 H       
  56 H56            3.9198     8.9250    -6.6226 H       
  57 H57            6.0734     0.5556    -5.9762 H       
  58 H58            5.7332     1.7992    -8.0680 H       
@<TRIPOS>BOND
   1    1    2 ar
   2    1    6 ar
   3    1   37 1
   4    2    3 ar
   5    2   38 1
   6    3    4 ar
   7    3   39 1
   8    4    5 ar
   9    4   40 1
  10    5    6 ar
  11    5    7 1
  12    6   41 1
  13    7    8 1
  14    7    9 1
  15    7   23 1
  16    8   11 1
  17    9   10 1
  18    9   42 1
  19    9   43 1
  20   10   11 2
  21   10   12 1
  22   12   13 ar
  23   12   14 ar
  24   13   22 ar
  25   13   17 ar
  26   14   15 ar
  27   14   44 1
  28   15   16 ar
  29   15   45 1
  30   16   17 ar
  31   16   18 1
  32   17   21 ar
  33   18   19 2
  34   18   20 am
  35   20   27 1
  36   20   46 1
  37   21   36 ar
  38   21   47 1
  39   22   35 ar
  40   22   48 1
  41   23   24 1
  42   23   25 1
  43   23   26 1
  44   27   28 1
  45   27   29 1
  46   28   49 1
  47   28   50 1
  48   28   51 1
  49   29   30 ar
  50   29   34 ar
  51   30   31 ar
  52   30   52 1
  53   31   32 ar
  54   31   53 1
  55   32   33 ar
  56   32   54 1
  57   33   34 ar
  58   33   55 1
  59   34   56 1
  60   35   36 ar
  61   35   57 1
  62   36   58 1

#	End of record

