#	Name: ASD01884675
#	Creating user name:	WinNT
#	Creation time:	15. 06. 2019 19:48

#	Modifying user name:	WinNT
#	Modification time:	15. 06. 2019 19:48

#	Program:	/corina/corina34_cracker 3.40 0067  02.08.2006

@<TRIPOS>MOLECULE
ASD01884675
  51   54    0    0    0
SMALL
NO_CHARGES


@<TRIPOS>ATOM
   1 C1            -0.0164     1.3575     0.0095 C.2     
   2 C2             0.0021    -0.0041     0.0020 C.2     
   3 C3             1.2441    -0.6750    -0.0134 C.2     
   4 C4             2.4025     0.0467    -0.0206 C.2     
   5 N5             2.3701     1.4022    -0.0130 N.am    
   6 C6             1.1988     2.0651     0.0017 C.2     
   7 O7             1.1913     3.2854     0.0083 O.2     
   8 C8             1.2900    -2.1582    -0.0214 C.ar    
   9 C9             3.6267     2.1552    -0.0205 C.3     
  10 C10            4.0446     2.4211    -1.4438 C.ar    
  11 C11            3.4606     3.4555    -2.1550 C.ar    
  12 C12            3.8454     3.6993    -3.4624 C.ar    
  13 C13            4.8127     2.9094    -4.0565 C.ar    
  14 C14            5.3953     1.8759    -3.3442 C.ar    
  15 C15            5.0150     1.6358    -2.0374 C.ar    
  16 F16            2.5155     4.2262    -1.5736 F       
  17 Cl17           5.2955     3.2139    -5.6959 Cl      
  18 C18            0.8131    -2.8784     1.0721 C.ar    
  19 C19            1.8048    -2.8360    -1.1246 C.ar    
  20 C20            1.8451    -4.2156    -1.1266 C.ar    
  21 C21            1.3756    -4.9253    -0.0361 C.ar    
  22 C22            0.8582    -4.2577     1.0594 C.ar    
  23 S23            1.4301    -6.6864    -0.0455 S.o2    
  24 O24            0.4347    -7.1236     0.8695 O.2     
  25 O25            1.4575    -7.0798    -1.4107 O.2     
  26 N26            2.8877    -7.1352     0.5997 N.am    
  27 C27            3.0382    -7.3626     2.0458 C.3     
  28 C28            3.7097    -8.7249     2.2537 C.3     
  29 O29            4.9064    -8.7837     1.4738 O.3     
  30 C30            4.6918    -8.6833     0.0640 C.3     
  31 C31            4.0692    -7.3243    -0.2568 C.3     
  32 H32           -0.9563     1.8894     0.0168 H       
  33 H33           -0.9217    -0.5636     0.0082 H       
  34 H34            3.3529    -0.4662    -0.0321 H       
  35 H35            3.4856     3.1026     0.4997 H       
  36 H36            4.4005     1.5758     0.4831 H       
  37 H37            3.3902     4.5058    -4.0182 H       
  38 H38            6.1507     1.2591    -3.8084 H       
  39 H39            5.4703     0.8290    -1.4823 H       
  40 H40            0.4093    -2.3581     1.9281 H       
  41 H41            2.1713    -2.2828    -1.9767 H       
  42 H42            2.2436    -4.7419    -1.9813 H       
  43 H43            0.4934    -4.8168     1.9083 H       
  44 H44            3.6587    -6.5776     2.4782 H       
  45 H45            2.0577    -7.3601     2.5218 H       
  46 H46            3.9555    -8.8525     3.3079 H       
  47 H47            3.0307    -9.5173     1.9389 H       
  48 H48            5.6441    -8.7810    -0.4572 H       
  49 H49            4.0163    -9.4755    -0.2588 H       
  50 H50            3.7730    -7.2946    -1.3053 H       
  51 H51            4.7916    -6.5331    -0.0563 H       
@<TRIPOS>BOND
   1    1    2 2
   2    1    6 1
   3    1   32 1
   4    2    3 1
   5    2   33 1
   6    3    4 2
   7    3    8 1
   8    4    5 1
   9    4   34 1
  10    5    6 am
  11    5    9 1
  12    6    7 2
  13    8   18 ar
  14    8   19 ar
  15    9   10 1
  16    9   35 1
  17    9   36 1
  18   10   11 ar
  19   10   15 ar
  20   11   12 ar
  21   11   16 1
  22   12   13 ar
  23   12   37 1
  24   13   14 ar
  25   13   17 1
  26   14   15 ar
  27   14   38 1
  28   15   39 1
  29   18   22 ar
  30   18   40 1
  31   19   20 ar
  32   19   41 1
  33   20   21 ar
  34   20   42 1
  35   21   22 ar
  36   21   23 1
  37   22   43 1
  38   23   24 2
  39   23   25 2
  40   23   26 am
  41   26   27 1
  42   26   31 1
  43   27   28 1
  44   27   44 1
  45   27   45 1
  46   28   29 1
  47   28   46 1
  48   28   47 1
  49   29   30 1
  50   30   31 1
  51   30   48 1
  52   30   49 1
  53   31   50 1
  54   31   51 1

#	End of record

