#	Name: ASD01900395
#	Creating user name:	WinNT
#	Creation time:	15. 06. 2019 19:51

#	Modifying user name:	WinNT
#	Modification time:	15. 06. 2019 19:51

#	Program:	/corina/corina34_cracker 3.40 0067  02.08.2006

@<TRIPOS>MOLECULE
ASD01900395
  25   27    0    0    0
SMALL
NO_CHARGES


@<TRIPOS>ATOM
   1 C1            -0.0115     1.4027     0.0710 C.ar    
   2 C2            -0.0102     0.0044    -0.1164 C.ar    
   3 N3             1.1218     2.0820    -0.0600 N.ar    
   4 N4             1.1226    -0.6221    -0.4221 N.ar    
   5 C5             2.2372     0.0689    -0.5478 C.ar    
   6 C6             2.2362     1.4463    -0.3633 C.ar    
   7 N7            -2.1035     0.6180     0.3848 N.2     
   8 N8            -1.2966     1.7598     0.3761 N.pl3   
   9 C9            -1.3904    -0.4376     0.0947 C.2     
  10 N10           -1.8583    -1.7520     0.0097 N.pl3   
  11 C11           -3.2263    -2.0161     0.1269 C.ar    
  12 C12           -4.1552    -1.0602    -0.2646 C.ar    
  13 C13           -5.5067    -1.3236    -0.1477 C.ar    
  14 C14           -5.9349    -2.5401     0.3602 C.ar    
  15 C15           -5.0104    -3.4931     0.7512 C.ar    
  16 C16           -3.6584    -3.2365     0.6297 C.ar    
  17 F17           -7.2566    -2.7958     0.4743 F       
  18 Cl18          -6.6687    -0.1301    -0.6366 Cl      
  19 H19            3.1578    -0.4384    -0.7956 H       
  20 H20            3.1568     2.0010    -0.4694 H       
  21 H21           -1.6000     2.6630     0.5580 H       
  22 H22           -1.2340    -2.4810    -0.1307 H       
  23 H23           -3.8214    -0.1121    -0.6597 H       
  24 H24           -5.3463    -4.4400     1.1473 H       
  25 H25           -2.9377    -3.9826     0.9302 H       
@<TRIPOS>BOND
   1    1    2 ar
   2    1    3 ar
   3    1    8 1
   4    2    4 ar
   5    2    9 1
   6    3    6 ar
   7    4    5 ar
   8    5    6 ar
   9    5   19 1
  10    6   20 1
  11    7    8 1
  12    7    9 2
  13    8   21 1
  14    9   10 1
  15   10   11 1
  16   10   22 1
  17   11   12 ar
  18   11   16 ar
  19   12   13 ar
  20   12   23 1
  21   13   14 ar
  22   13   18 1
  23   14   15 ar
  24   14   17 1
  25   15   16 ar
  26   15   24 1
  27   16   25 1

#	End of record

