#	Name: ASD01870151
#	Creating user name:	WinNT
#	Creation time:	15. 06. 2019 19:38

#	Modifying user name:	WinNT
#	Modification time:	15. 06. 2019 19:38

#	Program:	/corina/corina34_cracker 3.40 0067  02.08.2006

@<TRIPOS>MOLECULE
ASD01870151
  41   44    0    0    0
SMALL
NO_CHARGES


@<TRIPOS>ATOM
   1 C1            -0.1271     1.2473     0.2148 C.ar    
   2 C2            -0.1900    -0.1056    -0.1328 C.ar    
   3 C3             1.0551     1.7756     0.7424 C.ar    
   4 C4             2.1522     0.9627     0.9175 C.ar    
   5 C5             2.0858    -0.3826     0.5701 C.ar    
   6 C6             0.9114    -0.9121     0.0454 C.ar    
   7 N7             3.2020    -1.2045     0.7486 N.am    
   8 C8             3.2330    -2.2002     1.6430 C.2     
   9 C9             4.3263    -1.0644     0.0354 C.2     
  10 C10            5.3293    -2.1077     0.4771 C.3     
  11 C11            4.5804    -2.8857     1.5783 C.3     
  12 O12            4.5114    -0.2336    -0.8278 O.2     
  13 O13            2.3255    -2.5042     2.3870 O.2     
  14 C14            4.9833    -3.5853     0.2822 C.3     
  15 C15            3.8706    -3.9232    -0.7121 C.3     
  16 C16            6.1321    -4.5933     0.3526 C.3     
  17 C17           -1.3033     2.1165     0.0198 C.2     
  18 C18           -1.4414     3.3591     0.8053 C.ar    
  19 O19           -2.1589     1.8096    -0.7879 O.2     
  20 C20           -2.2463     4.4002     0.3352 C.ar    
  21 C21           -2.3719     5.5574     1.0728 C.ar    
  22 C22           -1.7013     5.6899     2.2796 C.ar    
  23 C23           -0.7723     3.4961     2.0245 C.ar    
  24 C24           -0.9008     4.6601     2.7508 C.ar    
  25 F25           -1.8280     6.8267     2.9986 F       
  26 H26           -1.1015    -0.5174    -0.5402 H       
  27 H27            1.1076     2.8202     1.0117 H       
  28 H28            3.0657     1.3700     1.3249 H       
  29 H29            0.8636    -1.9571    -0.2228 H       
  30 H30            6.3692    -1.7992     0.5845 H       
  31 H31            5.0544    -3.1641     2.5195 H       
  32 H32            3.3700    -3.0061    -1.0228 H       
  33 H33            4.3000    -4.4161    -1.5843 H       
  34 H34            3.1489    -4.5882    -0.2376 H       
  35 H35            5.8706    -5.3946     1.0437 H       
  36 H36            6.3097    -5.0115    -0.6382 H       
  37 H37            7.0345    -4.0919     0.7024 H       
  38 H38           -2.7687     4.2983    -0.6045 H       
  39 H39           -2.9934     6.3629     0.7103 H       
  40 H40           -0.1525     2.6929     2.3948 H       
  41 H41           -0.3806     4.7689     3.6910 H       
@<TRIPOS>BOND
   1    1    2 ar
   2    1    3 ar
   3    1   17 1
   4    2    6 ar
   5    2   26 1
   6    3    4 ar
   7    3   27 1
   8    4    5 ar
   9    4   28 1
  10    5    6 ar
  11    5    7 1
  12    6   29 1
  13    7    8 am
  14    7    9 am
  15    8   13 2
  16    8   11 1
  17    9   12 2
  18    9   10 1
  19   10   11 1
  20   10   14 1
  21   10   30 1
  22   11   14 1
  23   11   31 1
  24   14   15 1
  25   14   16 1
  26   15   32 1
  27   15   33 1
  28   15   34 1
  29   16   35 1
  30   16   36 1
  31   16   37 1
  32   17   18 1
  33   17   19 2
  34   18   20 ar
  35   18   23 ar
  36   20   21 ar
  37   20   38 1
  38   21   22 ar
  39   21   39 1
  40   22   24 ar
  41   22   25 1
  42   23   24 ar
  43   23   40 1
  44   24   41 1

#	End of record

