#	Name: ASD02038879
#	Creating user name:	WinNT
#	Creation time:	15. 06. 2019 20:17

#	Modifying user name:	WinNT
#	Modification time:	15. 06. 2019 20:17

#	Program:	/corina/corina34_cracker 3.40 0067  02.08.2006

@<TRIPOS>MOLECULE
ASD02038879
  80   82    0    0    0
SMALL
NO_CHARGES


@<TRIPOS>ATOM
   1 C1            -0.0143     1.2041     0.0087 C.2     
   2 C2            -1.3295     1.9397     0.0189 C.3     
   3 C3            -1.4165     2.8114     1.2733 C.3     
   4 C4            -2.7997     3.4612     1.3479 C.3     
   5 O5             0.0021    -0.0041     0.0020 O.2     
   6 O6             1.1389     1.8910     0.0013 O.3     
   7 O7            -1.2079     2.0011     2.4318 O.3     
   8 C8            -3.6368     1.3252    -0.4668 C.2     
   9 O9            -3.8117     2.4429    -0.9038 O.2     
  10 N10           -2.4300     0.9727     0.0189 N.am    
  11 N11           -5.9743     0.9448    -1.0421 N.am    
  12 C12           -4.7688     0.3304    -0.4668 C.3     
  13 C13           -4.4041    -0.8797    -1.3524 C.3     
  14 C14           -5.0944    -0.5441    -2.7008 C.3     
  15 C15           -6.3871     0.1621    -2.2212 C.3     
  16 C16           -6.6015     2.0389    -0.5668 C.2     
  17 O17           -6.1745     2.6026     0.4185 O.2     
  18 N18           -8.3326     3.7544    -0.5594 N.am    
  19 C19           -7.8334     2.5619    -1.2595 C.3     
  20 C20           -7.4836     2.9894    -2.7005 C.3     
  21 C21           -7.2720     4.5207    -2.5670 C.3     
  22 C22           -8.3331     4.8894    -1.5003 C.3     
  23 C23           -8.7295     3.8010     0.7278 C.2     
  24 C24           -9.2210     5.0974     1.3183 C.3     
  25 C25          -10.4435     5.5828     0.5367 C.3     
  26 O26           -8.6911     2.7995     1.4108 O.2     
  27 N27           -9.5898     4.8866     2.7203 N.am    
  28 C28           -9.5710     5.9204     3.5849 C.2     
  29 O29           -9.2481     7.0273     3.2014 O.2     
  30 O30           -9.9100     5.7266     4.8734 O.3     
  31 C31           -9.8671     6.8851     5.7477 C.3     
  32 C32          -10.2752     6.4788     7.1403 C.ar    
  33 C33           -9.3200     6.0507     8.0432 C.ar    
  34 C34           -9.6943     5.6780     9.3207 C.ar    
  35 C35          -11.0237     5.7338     9.6953 C.ar    
  36 C36          -11.9788     6.1627     8.7927 C.ar    
  37 C37          -11.6039     6.5396     7.5166 C.ar    
  38 O38          -11.4509     4.5374     0.5158 O.3     
  39 C39          -12.5939     4.8054    -0.1348 C.2     
  40 O40          -12.7476     5.8781    -0.6692 O.2     
  41 C41          -13.6856     3.7685    -0.1988 C.3     
  42 C42            2.3672     1.1168    -0.0145 C.3     
  43 H43           -1.4000     2.5704    -0.8673 H       
  44 H44           -0.6524     3.5874     1.2303 H       
  45 H45           -3.5639     2.6851     1.3909 H       
  46 H46           -2.8617     4.0822     2.2415 H       
  47 H47           -2.9589     4.0792     0.4642 H       
  48 H48           -1.8529     1.2881     2.5344 H       
  49 H49           -2.2901     0.0787     0.3684 H       
  50 H50           -4.9722    -0.0029     0.5508 H       
  51 H51           -3.3241    -0.9528    -1.4798 H       
  52 H52           -4.8072    -1.8009    -0.9316 H       
  53 H53           -4.4795     0.1298    -3.2974 H       
  54 H54           -5.3284    -1.4521    -3.2566 H       
  55 H55           -7.1407    -0.5746    -1.9427 H       
  56 H56           -6.7700     0.8221    -2.9996 H       
  57 H57           -8.6055     1.7927    -1.2782 H       
  58 H58           -6.5685     2.5015    -3.0362 H       
  59 H59           -8.3089     2.7719    -3.3785 H       
  60 H60           -6.2664     4.7467    -2.2122 H       
  61 H61           -7.4746     5.0269    -3.5108 H       
  62 H62           -9.3140     4.9983    -1.9628 H       
  63 H63           -8.0509     5.8083    -0.9863 H       
  64 H64           -8.4311     5.8462     1.2590 H       
  65 H65          -10.8523     6.4718     1.0170 H       
  66 H66          -10.1493     5.8244    -0.4847 H       
  67 H67           -9.8476     4.0030     3.0264 H       
  68 H68           -8.8542     7.2872     5.7686 H       
  69 H69          -10.5526     7.6466     5.3758 H       
  70 H70           -8.2813     6.0072     7.7505 H       
  71 H71           -8.9481     5.3429    10.0259 H       
  72 H72          -11.3163     5.4419    10.6931 H       
  73 H73          -13.0175     6.2060     9.0853 H       
  74 H74          -12.3496     6.8782     6.8126 H       
  75 H75          -14.3547     3.8923     0.6527 H       
  76 H76          -14.2487     3.8904    -1.1241 H       
  77 H77          -13.2430     2.7728    -0.1714 H       
  78 H78            3.2225     1.7925    -0.0191 H       
  79 H79            2.4091     0.4836     0.8717 H       
  80 H80            2.3921     0.4932    -0.9082 H       
@<TRIPOS>BOND
   1    1    5 2
   2    1    6 1
   3    1    2 1
   4    2    3 1
   5    2   10 1
   6    2   43 1
   7    3    4 1
   8    3    7 1
   9    3   44 1
  10    4   45 1
  11    4   46 1
  12    4   47 1
  13    6   42 1
  14    7   48 1
  15    8    9 2
  16    8   10 am
  17    8   12 1
  18   10   49 1
  19   11   12 1
  20   11   15 1
  21   11   16 am
  22   12   13 1
  23   12   50 1
  24   13   14 1
  25   13   51 1
  26   13   52 1
  27   14   15 1
  28   14   53 1
  29   14   54 1
  30   15   55 1
  31   15   56 1
  32   16   17 2
  33   16   19 1
  34   18   19 1
  35   18   22 1
  36   18   23 am
  37   19   20 1
  38   19   57 1
  39   20   21 1
  40   20   58 1
  41   20   59 1
  42   21   22 1
  43   21   60 1
  44   21   61 1
  45   22   62 1
  46   22   63 1
  47   23   26 2
  48   23   24 1
  49   24   25 1
  50   24   27 1
  51   24   64 1
  52   25   38 1
  53   25   65 1
  54   25   66 1
  55   27   28 am
  56   27   67 1
  57   28   29 2
  58   28   30 1
  59   30   31 1
  60   31   32 1
  61   31   68 1
  62   31   69 1
  63   32   33 ar
  64   32   37 ar
  65   33   34 ar
  66   33   70 1
  67   34   35 ar
  68   34   71 1
  69   35   36 ar
  70   35   72 1
  71   36   37 ar
  72   36   73 1
  73   37   74 1
  74   38   39 1
  75   39   40 2
  76   39   41 1
  77   41   75 1
  78   41   76 1
  79   41   77 1
  80   42   78 1
  81   42   79 1
  82   42   80 1

#	End of record

