#	Name: ASD01812788
#	Creating user name:	WinNT
#	Creation time:	15. 06. 2019 19:29

#	Modifying user name:	WinNT
#	Modification time:	15. 06. 2019 19:29

#	Program:	/corina/corina34_cracker 3.40 0067  02.08.2006

@<TRIPOS>MOLECULE
ASD01812788
  63   67    0    0    0
SMALL
NO_CHARGES


@<TRIPOS>ATOM
   1 N1             0.0028     1.3186    -0.2240 N.ar    
   2 C2             0.0320     0.0059    -0.3480 C.ar    
   3 C3             1.2342    -0.6842    -0.3698 C.ar    
   4 C4             2.4114     0.0205    -0.2596 C.ar    
   5 C5             2.3615     1.4132    -0.1287 C.ar    
   6 C6             1.1073     2.0396    -0.1149 C.ar    
   7 C7             3.8682    -0.3580    -0.2428 C.3     
   8 N8             4.6152     0.8975    -0.0961 N.am    
   9 C9             3.7395     1.9162    -0.0308 C.2     
  10 C10            6.0736     1.0203    -0.0311 C.3     
  11 C11            6.6253     1.1968    -1.4223 C.ar    
  12 C12            6.7726     2.4672    -1.9492 C.ar    
  13 C13            7.2774     2.6346    -3.2229 C.ar    
  14 C14            7.6393     1.5212    -3.9778 C.ar    
  15 C15            7.4893     0.2440    -3.4422 C.ar    
  16 C16            6.9880     0.0882    -2.1656 C.ar    
  17 O17            1.0259     3.3855     0.0100 O.3     
  18 O18            4.0442     3.0870     0.0912 O.2     
  19 C19            8.1824     1.6951    -5.3486 C.2     
  20 C20           -0.2021     3.9617    -0.0802 C.ar    
  21 C21           -2.7027     5.1340    -0.2647 C.ar    
  22 C22           -1.8988     5.0410    -1.3853 C.ar    
  23 C23           -0.6498     4.4560    -1.2957 C.ar    
  24 C24           -1.0135     4.0511     1.0444 C.ar    
  25 C25           -2.2623     4.6375     0.9487 C.ar    
  26 F26           -0.5832     3.5656     2.2294 F       
  27 C27            7.6370     2.4555    -6.3415 C.2     
  28 C28            9.3577     1.1099    -5.8586 C.2     
  29 N29            9.5009     1.5002    -7.0975 N.2     
  30 N30            8.4361     2.3494    -7.4222 N.pl3   
  31 C31           10.2880     0.1934    -5.1066 C.3     
  32 C32            8.2241     3.0054    -8.7149 C.3     
  33 C33           -2.3827     5.5833    -2.7055 C.3     
  34 C34           -3.9080     5.4820    -2.7702 C.3     
  35 C35           -1.9627     7.0484    -2.8398 C.3     
  36 O36           -1.8093     4.8237    -3.7714 O.3     
  37 H37           -0.8957    -0.5404    -0.4336 H       
  38 H38            1.2468    -1.7593    -0.4714 H       
  39 H39            4.0745    -1.0176     0.6001 H       
  40 H40            4.1390    -0.8481    -1.1780 H       
  41 H41            6.3386     1.8850     0.5773 H       
  42 H42            6.4945     0.1193     0.4151 H       
  43 H43            6.4917     3.3298    -1.3631 H       
  44 H44            7.3913     3.6269    -3.6336 H       
  45 H45            7.7684    -0.6225    -4.0233 H       
  46 H46            6.8748    -0.9013    -1.7480 H       
  47 H47           -3.6781     5.5919    -0.3376 H       
  48 H48           -0.0227     4.3844    -2.1721 H       
  49 H49           -2.8924     4.7114     1.8227 H       
  50 H50            6.7293     3.0368    -6.2740 H       
  51 H51            9.9696    -0.8400    -5.2440 H       
  52 H52           11.3026     0.3144    -5.4862 H       
  53 H53           10.2648     0.4428    -4.0458 H       
  54 H54            8.7149     3.9787    -8.7132 H       
  55 H55            8.6442     2.3880    -9.5089 H       
  56 H56            7.1555     3.1377    -8.8843 H       
  57 H57           -4.3454     6.0614    -1.9571 H       
  58 H58           -4.2580     5.8743    -3.7250 H       
  59 H59           -4.2072     4.4383    -2.6745 H       
  60 H60           -0.8761     7.1205    -2.7937 H       
  61 H61           -2.3127     7.4406    -3.7946 H       
  62 H62           -2.4001     7.6277    -2.0267 H       
  63 H63           -2.0777     5.1178    -4.6526 H       
@<TRIPOS>BOND
   1    1    2 ar
   2    1    6 ar
   3    2    3 ar
   4    2   37 1
   5    3    4 ar
   6    3   38 1
   7    4    7 1
   8    4    5 ar
   9    5    6 ar
  10    5    9 1
  11    6   17 1
  12    7    8 1
  13    7   39 1
  14    7   40 1
  15    8    9 am
  16    8   10 1
  17    9   18 2
  18   10   11 1
  19   10   41 1
  20   10   42 1
  21   11   12 ar
  22   11   16 ar
  23   12   13 ar
  24   12   43 1
  25   13   14 ar
  26   13   44 1
  27   14   15 ar
  28   14   19 1
  29   15   16 ar
  30   15   45 1
  31   16   46 1
  32   17   20 1
  33   19   28 1
  34   19   27 2
  35   20   24 ar
  36   20   23 ar
  37   21   22 ar
  38   21   25 ar
  39   21   47 1
  40   22   23 ar
  41   22   33 1
  42   23   48 1
  43   24   25 ar
  44   24   26 1
  45   25   49 1
  46   27   30 1
  47   27   50 1
  48   28   29 2
  49   28   31 1
  50   29   30 1
  51   30   32 1
  52   31   51 1
  53   31   52 1
  54   31   53 1
  55   32   54 1
  56   32   55 1
  57   32   56 1
  58   33   34 1
  59   33   35 1
  60   33   36 1
  61   34   57 1
  62   34   58 1
  63   34   59 1
  64   35   60 1
  65   35   61 1
  66   35   62 1
  67   36   63 1

#	End of record

