#	Name: ASD01870089
#	Creating user name:	WinNT
#	Creation time:	15. 06. 2019 19:38

#	Modifying user name:	WinNT
#	Modification time:	15. 06. 2019 19:38

#	Program:	/corina/corina34_cracker 3.40 0067  02.08.2006

@<TRIPOS>MOLECULE
ASD01870089
  50   55    0    0    0
SMALL
NO_CHARGES


@<TRIPOS>ATOM
   1 C1            -0.0171     1.4126     0.0098 C.ar    
   2 C2             0.0021    -0.0041     0.0020 C.ar    
   3 N3             1.1332     2.0935     0.0025 N.ar    
   4 C4             2.2899     1.4770    -0.0119 C.ar    
   5 C5             2.3796     0.0866    -0.0207 C.ar    
   6 C6             1.2423    -0.6697    -0.0130 C.ar    
   7 C7             3.7300    -0.5820    -0.0383 C.3     
   8 C8             4.6522    -0.2807    -1.2214 C.3     
   9 C9             4.1405     0.6620    -2.2799 C.2     
  10 O10            3.3637     1.5379    -1.9840 O.2     
  11 C11            4.5984     0.5117    -3.7078 C.3     
  12 C12            3.9348     1.5859    -4.5719 C.3     
  13 C13            4.3997     1.4333    -6.0216 C.3     
  14 C14            5.9200     1.5918    -6.0890 C.3     
  15 C15            6.5835     0.5176    -5.2249 C.3     
  16 C16            6.1187     0.6702    -3.7752 C.3     
  17 C17            4.2065    -0.8735    -4.2259 C.3     
  18 C18            4.6714    -1.0261    -5.6755 C.3     
  19 C19            4.0078     0.0481    -6.5397 C.3     
  20 C20            6.1916    -0.8677    -5.7430 C.3     
  21 C21           -1.2092    -0.7146     0.0089 C.ar    
  22 C22           -2.3882    -0.0341     0.0229 C.ar    
  23 C23           -2.4096     1.3593     0.0305 C.ar    
  24 C24           -1.2550     2.0793     0.0193 C.ar    
  25 C25            4.9605     0.3058     0.1577 C.3     
  26 H26            3.1976     2.0623    -0.0174 H       
  27 H27            1.2932    -1.7485    -0.0193 H       
  28 H28            3.7623    -1.5874     0.3817 H       
  29 H29            5.2912    -1.0878    -1.5797 H       
  30 H30            2.8518     1.4730    -4.5238 H       
  31 H31            4.2140     2.5728    -4.2028 H       
  32 H32            3.9269     2.1986    -6.6372 H       
  33 H33            6.2511     1.4831    -7.1218 H       
  34 H34            6.1991     2.5787    -5.7199 H       
  35 H35            7.6666     0.6305    -5.2730 H       
  36 H36            6.3979     1.6571    -3.4061 H       
  37 H37            6.5914    -0.0951    -3.1596 H       
  38 H38            4.6793    -1.6388    -3.6103 H       
  39 H39            3.1235    -0.9864    -4.1778 H       
  40 H40            4.3922    -2.0130    -6.0446 H       
  41 H41            2.9247    -0.0648    -6.4916 H       
  42 H42            4.3390    -0.0606    -7.5724 H       
  43 H43            6.5228    -0.9764    -6.7758 H       
  44 H44            6.6644    -1.6329    -5.1274 H       
  45 H45           -1.2054    -1.7945     0.0027 H       
  46 H46           -3.3193    -0.5813     0.0278 H       
  47 H47           -3.3578     1.8761     0.0416 H       
  48 H48           -1.2892     3.1587     0.0255 H       
  49 H49            4.7933     1.3736     0.2993 H       
  50 H50            5.8026    -0.1153     0.7069 H       
@<TRIPOS>BOND
   1    1    2 ar
   2    1    3 ar
   3    1   24 ar
   4    2   21 ar
   5    2    6 ar
   6    3    4 ar
   7    4    5 ar
   8    4   26 1
   9    5    6 ar
  10    5    7 1
  11    6   27 1
  12    7    8 1
  13    7   25 1
  14    7   28 1
  15    8    9 1
  16    8   25 1
  17    8   29 1
  18    9   10 2
  19    9   11 1
  20   11   12 1
  21   11   17 1
  22   11   16 1
  23   12   13 1
  24   12   30 1
  25   12   31 1
  26   13   14 1
  27   13   19 1
  28   13   32 1
  29   14   15 1
  30   14   33 1
  31   14   34 1
  32   15   16 1
  33   15   20 1
  34   15   35 1
  35   16   36 1
  36   16   37 1
  37   17   18 1
  38   17   38 1
  39   17   39 1
  40   18   19 1
  41   18   20 1
  42   18   40 1
  43   19   41 1
  44   19   42 1
  45   20   43 1
  46   20   44 1
  47   21   22 ar
  48   21   45 1
  49   22   23 ar
  50   22   46 1
  51   23   24 ar
  52   23   47 1
  53   24   48 1
  54   25   49 1
  55   25   50 1

#	End of record

