#	Name: ASD04590803
#	Creating user name:	WinNT
#	Creation time:	15. 06. 2019 20:51

#	Modifying user name:	WinNT
#	Modification time:	15. 06. 2019 20:51

#	Program:	/corina/corina34_cracker 3.40 0067  02.08.2006

@<TRIPOS>MOLECULE
ASD04590803
  70   76    0    0    0
SMALL
NO_CHARGES


@<TRIPOS>ATOM
   1 C1            -2.4137     1.2385     0.0273 C.ar    
   2 N2            -2.3431    -0.0827     0.0124 N.ar    
   3 C3            -3.4496    -0.8200     0.0257 C.ar    
   4 C4            -4.6953    -0.1613     0.0559 C.ar    
   5 C5            -4.7193     1.2297     0.0703 C.ar    
   6 N6            -3.5711     1.8866     0.0557 N.ar    
   7 N7            -3.6750    -2.1742     0.0156 N.pl3   
   8 C8            -5.7213    -1.2118     0.0639 C.ar    
   9 C9            -5.0336    -2.4386     0.0381 C.ar    
  10 C10           -5.7745    -3.6128     0.0391 C.ar    
  11 C11           -7.1150    -1.2245     0.0894 C.ar    
  12 C12           -7.7673    -2.4397     0.0883 C.ar    
  13 N13           -7.0914    -3.5745     0.0637 N.ar    
  14 N14           -1.2380     1.9706     0.0185 N.pl3   
  15 C15           -1.2831     3.3617    -0.0790 C.ar    
  16 C16           -0.1086     4.1084     0.0241 C.ar    
  17 C17           -0.2036     5.4849    -0.0794 C.ar    
  18 C18           -1.4682     6.0404    -0.2805 C.ar    
  19 N19           -2.5275     5.2523    -0.3659 N.ar    
  20 N20           -2.4385     3.9752    -0.2749 N.ar    
  21 O21           -2.7444     9.4697    -2.9433 O.3     
  22 C22           -2.0057    10.0128    -4.0411 C.3     
  23 C23           -2.0968    11.5406    -4.0039 C.3     
  24 N24           -1.6017    12.0250    -2.7072 N.3     
  25 C25           -2.3817    11.4471    -1.6029 C.3     
  26 C26           -2.2906     9.9210    -1.6652 C.3     
  27 C27           -3.1646     9.3102    -0.5674 C.3     
  28 C28           -3.0219     7.7866    -0.5977 C.3     
  29 N29           -1.6147     7.4215    -0.3906 N.3     
  30 C30           -0.7632     7.9574    -1.4602 C.3     
  31 C31           -0.8382     9.4861    -1.4558 C.3     
  32 C32           -1.6189    13.4929    -2.6521 C.3     
  33 C33           -2.6254    -3.1958    -0.0147 C.3     
  34 C34           -1.7666    -3.0318    -1.2810 C.3     
  35 C35           -0.3258    -2.7564    -0.8036 C.3     
  36 C36           -0.2763    -3.3591     0.6224 C.3     
  37 C37           -1.6765    -3.0144     1.1879 C.3     
  38 H38           -5.6580     1.7634     0.0934 H       
  39 H39           -5.2670    -4.5660     0.0192 H       
  40 H40           -7.6735    -0.3003     0.1099 H       
  41 H41           -8.8468    -2.4639     0.1083 H       
  42 H42           -0.3832     1.5162     0.0802 H       
  43 H43            0.8453     3.6266     0.1803 H       
  44 H44            0.6738     6.1104    -0.0066 H       
  45 H45           -0.9620     9.7083    -3.9638 H       
  46 H46           -2.4241     9.6459    -4.9784 H       
  47 H47           -1.4894    11.9610    -4.8054 H       
  48 H48           -3.1348    11.8466    -4.1344 H       
  49 H49           -1.9805    11.7971    -0.6518 H       
  50 H50           -3.4238    11.7535    -1.6940 H       
  51 H51           -2.8445     9.6865     0.4042 H       
  52 H52           -4.2063     9.5816    -0.7384 H       
  53 H53           -3.6309     7.3490     0.1934 H       
  54 H54           -3.3566     7.4095    -1.5641 H       
  55 H55            0.2676     7.6438    -1.2953 H       
  56 H56           -1.1081     7.5796    -2.4227 H       
  57 H57           -0.2197     9.8831    -2.2607 H       
  58 H58           -0.4791     9.8653    -0.4991 H       
  59 H59           -2.6262    13.8526    -2.8617 H       
  60 H60           -1.3146    13.8228    -1.6588 H       
  61 H61           -0.9285    13.8924    -3.3949 H       
  62 H62           -3.0717    -4.1900     0.0075 H       
  63 H63           -1.7955    -3.9467    -1.8728 H       
  64 H64           -2.1308    -2.1921    -1.8729 H       
  65 H65            0.3933    -3.2549    -1.4536 H       
  66 H66           -0.1330    -1.6840    -0.7714 H       
  67 H67           -0.1317    -4.4386     0.5806 H       
  68 H68            0.5068    -2.8859     1.2148 H       
  69 H69           -1.7018    -1.9837     1.5417 H       
  70 H70           -1.9431    -3.7011     1.9913 H       
@<TRIPOS>BOND
   1    1    2 ar
   2    1    6 ar
   3    1   14 1
   4    2    3 ar
   5    3    4 ar
   6    3    7 1
   7    4    5 ar
   8    4    8 1
   9    5    6 ar
  10    5   38 1
  11    7    9 1
  12    7   33 1
  13    8    9 ar
  14    8   11 ar
  15    9   10 ar
  16   10   13 ar
  17   10   39 1
  18   11   12 ar
  19   11   40 1
  20   12   13 ar
  21   12   41 1
  22   14   15 1
  23   14   42 1
  24   15   16 ar
  25   15   20 ar
  26   16   17 ar
  27   16   43 1
  28   17   18 ar
  29   17   44 1
  30   18   19 ar
  31   18   29 1
  32   19   20 ar
  33   21   22 1
  34   21   26 1
  35   22   23 1
  36   22   45 1
  37   22   46 1
  38   23   24 1
  39   23   47 1
  40   23   48 1
  41   24   25 1
  42   24   32 1
  43   25   26 1
  44   25   49 1
  45   25   50 1
  46   26   27 1
  47   26   31 1
  48   27   28 1
  49   27   51 1
  50   27   52 1
  51   28   29 1
  52   28   53 1
  53   28   54 1
  54   29   30 1
  55   30   31 1
  56   30   55 1
  57   30   56 1
  58   31   57 1
  59   31   58 1
  60   32   59 1
  61   32   60 1
  62   32   61 1
  63   33   34 1
  64   33   37 1
  65   33   62 1
  66   34   35 1
  67   34   63 1
  68   34   64 1
  69   35   36 1
  70   35   65 1
  71   35   66 1
  72   36   37 1
  73   36   67 1
  74   36   68 1
  75   37   69 1
  76   37   70 1

#	End of record

