#	Name: ASD01880514
#	Creating user name:	WinNT
#	Creation time:	15. 06. 2019 19:40

#	Modifying user name:	WinNT
#	Modification time:	15. 06. 2019 19:40

#	Program:	/corina/corina34_cracker 3.40 0067  02.08.2006

@<TRIPOS>MOLECULE
ASD01880514
  38   40    0    0    0
SMALL
NO_CHARGES


@<TRIPOS>ATOM
   1 N1            -0.0158     1.3148     0.0093 N.ar    
   2 C2             0.0021    -0.0041     0.0020 C.ar    
   3 N3             1.1335    -0.6826    -0.0120 N.ar    
   4 C4             2.2996    -0.0568    -0.0198 C.ar    
   5 C5             2.3218     1.3285    -0.0130 C.ar    
   6 C6             1.1125     2.0081     0.0022 C.ar    
   7 C7             3.6285     2.0791    -0.0214 C.3     
   8 O8             4.7125     1.1481    -0.0363 O.3     
   9 C9             5.9677     1.6641    -0.0454 C.ar    
  10 C10            7.0688     0.8135    -0.0600 C.ar    
  11 C11            8.3379     1.3367    -0.0697 C.ar    
  12 C12            8.5325     2.7219    -0.0650 C.ar    
  13 C13            7.4231     3.5718    -0.0507 C.ar    
  14 C14            6.1521     3.0416    -0.0460 C.ar    
  15 C15            9.7117     0.7139    -0.0858 C.3     
  16 N16           10.6666     1.8280    -0.0897 N.am    
  17 C17            9.9820     2.9846    -0.0777 C.2     
  18 O18           10.4872     4.0905    -0.0776 O.2     
  19 Cl19          -1.5026    -0.8698     0.0117 Cl      
  20 Br20           1.0758     3.8987     0.0115 Br      
  21 C21           14.1447     1.5298    -1.5660 C.3     
  22 C22           12.6206     1.6628    -1.5512 C.3     
  23 C23           12.1259     1.7007    -0.1039 C.3     
  24 H24            3.2219    -0.6186    -0.0309 H       
  25 H25            3.6793     2.7101    -0.9087 H       
  26 H26            3.6960     2.7011     0.8711 H       
  27 H27            6.9252    -0.2569    -0.0633 H       
  28 H28            7.5623     4.6428    -0.0466 H       
  29 H29            5.2952     3.6989    -0.0353 H       
  30 H30            9.8554     0.1004     0.8035 H       
  31 H31            9.8383     0.1088    -0.9836 H       
  32 H32           14.4971     1.5029    -2.5972 H       
  33 H33           14.5888     2.3825    -1.0525 H       
  34 H34           14.4340     0.6093    -1.0590 H       
  35 H35           12.3312     2.5833    -2.0583 H       
  36 H36           12.1764     0.8101    -2.0648 H       
  37 H37           12.5701     2.5534     0.4097 H       
  38 H38           12.4153     0.7802     0.4031 H       
@<TRIPOS>BOND
   1    1    2 ar
   2    1    6 ar
   3    2    3 ar
   4    2   19 1
   5    3    4 ar
   6    4    5 ar
   7    4   24 1
   8    5    6 ar
   9    5    7 1
  10    6   20 1
  11    7    8 1
  12    7   25 1
  13    7   26 1
  14    8    9 1
  15    9   10 ar
  16    9   14 ar
  17   10   11 ar
  18   10   27 1
  19   11   12 ar
  20   11   15 1
  21   12   13 ar
  22   12   17 1
  23   13   14 ar
  24   13   28 1
  25   14   29 1
  26   15   16 1
  27   15   30 1
  28   15   31 1
  29   16   17 am
  30   16   23 1
  31   17   18 2
  32   21   22 1
  33   21   32 1
  34   21   33 1
  35   21   34 1
  36   22   23 1
  37   22   35 1
  38   22   36 1
  39   23   37 1
  40   23   38 1

#	End of record

