#	Name: ASD02408135
#	Creating user name:	WinNT
#	Creation time:	15. 06. 2019 20:21

#	Modifying user name:	WinNT
#	Modification time:	15. 06. 2019 20:21

#	Program:	/corina/corina34_cracker 3.40 0067  02.08.2006

@<TRIPOS>MOLECULE
ASD02408135
  41   43    0    0    0
SMALL
NO_CHARGES


@<TRIPOS>ATOM
   1 C1             0.2414     1.3336    -0.0371 C.ar    
   2 C2             0.3230    -0.0475    -0.0436 C.ar    
   3 C3             1.3961     2.0943     0.0054 C.ar    
   4 C4             2.6317     1.4734     0.0415 C.ar    
   5 C5             2.7120     0.0922     0.0350 C.ar    
   6 C6             1.5580    -0.6673    -0.0075 C.ar    
   7 C7             1.3079     3.5987     0.0120 C.3     
   8 C8             1.2320     4.0912     1.4342 C.2     
   9 N9             1.1470     5.4164     1.6606 N.am    
  10 N10            1.2455     3.2192     2.4055 N.2     
  11 C11            1.1801     3.5989     3.6880 C.2     
  12 C12            1.0951     4.9667     3.9963 C.2     
  13 C13            1.0771     5.8925     2.9216 C.2     
  14 N14            1.1956     2.6610     4.6911 N.pl3   
  15 C15            1.8025     2.8374     6.0230 C.3     
  16 O16            1.0044     7.0908     3.1323 O.2     
  17 Cl17          -1.3094     2.1119    -0.0896 Cl      
  18 Cl18           4.0813     2.4271     0.0943 Cl      
  19 C19            2.1109     1.4001     6.5117 C.3     
  20 C20            0.8910     0.6153     5.9611 C.3     
  21 C21            0.6041     1.3171     4.6168 C.3     
  22 C22           -0.9063     1.4172     4.3940 C.3     
  23 O23           -1.5146     2.0400     5.5272 O.3     
  24 C24            1.0234     5.4130     5.3551 C.1     
  25 N25            0.9666     5.7671     6.4330 N.1     
  26 H26           -0.5784    -0.6415    -0.0764 H       
  27 H27            3.6767    -0.3927     0.0628 H       
  28 H28            1.6212    -1.7455    -0.0122 H       
  29 H29            2.1914     4.0165    -0.4706 H       
  30 H30            0.4154     3.9127    -0.5294 H       
  31 H31            1.1364     6.0331     0.9120 H       
  32 H32            2.7220     3.4177     5.9470 H       
  33 H33            1.0998     3.3251     6.6985 H       
  34 H34            3.0407     1.0312     6.0785 H       
  35 H35            2.1446     1.3564     7.6003 H       
  36 H36            1.1453    -0.4330     5.8050 H       
  37 H37            0.0368     0.7103     6.6315 H       
  38 H38            1.0649     0.7592     3.8016 H       
  39 H39           -1.1034     2.0129     3.5027 H       
  40 H40           -1.3212     0.4179     4.2623 H       
  41 H41           -2.4741     2.1367     5.4550 H       
@<TRIPOS>BOND
   1    1    2 ar
   2    1    3 ar
   3    1   17 1
   4    2    6 ar
   5    2   26 1
   6    3    4 ar
   7    3    7 1
   8    4    5 ar
   9    4   18 1
  10    5    6 ar
  11    5   27 1
  12    6   28 1
  13    7    8 1
  14    7   29 1
  15    7   30 1
  16    8    9 1
  17    8   10 2
  18    9   13 am
  19    9   31 1
  20   10   11 1
  21   11   12 2
  22   11   14 1
  23   12   13 1
  24   12   24 1
  25   13   16 2
  26   14   15 1
  27   14   21 1
  28   15   19 1
  29   15   32 1
  30   15   33 1
  31   19   20 1
  32   19   34 1
  33   19   35 1
  34   20   21 1
  35   20   36 1
  36   20   37 1
  37   21   22 1
  38   21   38 1
  39   22   23 1
  40   22   39 1
  41   22   40 1
  42   23   41 1
  43   24   25 3

#	End of record

