#	Name: ASD03200045
#	Creating user name:	WinNT
#	Creation time:	15. 06. 2019 20:34

#	Modifying user name:	WinNT
#	Modification time:	15. 06. 2019 20:34

#	Program:	/corina/corina34_cracker 3.40 0067  02.08.2006

@<TRIPOS>MOLECULE
ASD03200045
  55   59    0    0    0
SMALL
NO_CHARGES


@<TRIPOS>ATOM
   1 C1             0.6779    -2.4617    -0.0336 C.3     
   2 N2             0.1957    -1.1353     0.3722 N.3     
   3 C3             0.6908    -0.7759     1.7071 C.3     
   4 C4             2.2198    -0.7137     1.6859 C.3     
   5 C5             2.7754    -2.0770     1.2651 C.3     
   6 C6             2.2065    -2.4498    -0.1068 C.3     
   7 C7            -1.1960    -1.0728     0.3219 C.ar    
   8 C8            -1.9473    -0.9211     1.4847 C.ar    
   9 C9            -3.3232    -0.8635     1.3933 C.ar    
  10 N10           -3.9305    -0.9503     0.2250 N.ar    
  11 C11           -3.2591    -1.0946    -0.9022 C.ar    
  12 C12           -1.8755    -1.1550    -0.8994 C.ar    
  13 N13           -1.1672    -1.3083    -2.0990 N.am    
  14 C14           -1.6913    -2.0401    -3.1021 C.2     
  15 C15           -1.0119    -2.0978    -4.3994 C.2     
  16 O16           -2.7290    -2.6531    -2.9306 O.2     
  17 C17           -1.5472    -2.7408    -5.4920 C.2     
  18 S18           -0.4659    -2.5891    -6.8081 S.3     
  19 C19            0.6521    -1.6650    -5.8126 C.2     
  20 N20            0.1681    -1.5292    -4.6182 N.2     
  21 C21            1.9466    -1.1198    -6.2715 C.ar    
  22 N22            2.7154    -0.3747     3.0266 N.3     
  23 N23           -2.7587    -3.4008    -5.5208 N.pl3   
  24 C24            2.8014    -0.4863    -5.3519 C.ar    
  25 C25            3.9956     0.0217    -5.7510 C.ar    
  26 C26            4.3891    -0.0829    -7.0966 C.ar    
  27 C27            3.5379    -0.7189    -8.0351 C.ar    
  28 C28            2.3098    -1.2423    -7.6020 C.ar    
  29 C29            5.6210     0.4353    -7.5368 C.ar    
  30 C30            5.9433     0.3011    -8.8578 C.ar    
  31 C31            5.0609    -0.3354    -9.7279 C.ar    
  32 N32            3.9133    -0.8164    -9.3155 N.ar    
  33 H33            0.3550    -3.2044     0.6959 H       
  34 H34            0.2694    -2.7128    -1.0125 H       
  35 H35            0.2917     0.1974     1.9926 H       
  36 H36            0.3678    -1.5264     2.4285 H       
  37 H37            2.5432     0.0464     0.9748 H       
  38 H38            3.8626    -2.0250     1.2067 H       
  39 H39            2.4846    -2.8306     1.9970 H       
  40 H40            2.5648    -3.4387    -0.3928 H       
  41 H41            2.5298    -1.7170    -0.8461 H       
  42 H42           -1.4595    -0.8499     2.4457 H       
  43 H43           -3.9116    -0.7460     2.2913 H       
  44 H44           -3.7946    -1.1621    -1.8377 H       
  45 H45           -0.2999    -0.8877    -2.2072 H       
  46 H46            3.7233    -0.3276     3.0383 H       
  47 H47            2.3093     0.4887     3.3547 H       
  48 H48           -3.3100    -3.4375    -4.7236 H       
  49 H49           -3.0590    -3.8280    -6.3382 H       
  50 H50            2.5044    -0.4026    -4.3169 H       
  51 H51            4.6429     0.5063    -5.0350 H       
  52 H52            1.6491    -1.7303    -8.3033 H       
  53 H53            6.2936     0.9264    -6.8491 H       
  54 H54            6.8813     0.6884    -9.2272 H       
  55 H55            5.3287    -0.4340   -10.7695 H       
@<TRIPOS>BOND
   1    1    2 1
   2    1    6 1
   3    1   33 1
   4    1   34 1
   5    2    3 1
   6    2    7 1
   7    3    4 1
   8    3   35 1
   9    3   36 1
  10    4    5 1
  11    4   22 1
  12    4   37 1
  13    5    6 1
  14    5   38 1
  15    5   39 1
  16    6   40 1
  17    6   41 1
  18    7    8 ar
  19    7   12 ar
  20    8    9 ar
  21    8   42 1
  22    9   10 ar
  23    9   43 1
  24   10   11 ar
  25   11   12 ar
  26   11   44 1
  27   12   13 1
  28   13   14 am
  29   13   45 1
  30   14   15 1
  31   14   16 2
  32   15   17 2
  33   15   20 1
  34   17   18 1
  35   17   23 1
  36   18   19 1
  37   19   20 2
  38   19   21 1
  39   21   24 ar
  40   21   28 ar
  41   22   46 1
  42   22   47 1
  43   23   48 1
  44   23   49 1
  45   24   25 ar
  46   24   50 1
  47   25   26 ar
  48   25   51 1
  49   26   27 ar
  50   26   29 ar
  51   27   28 ar
  52   27   32 ar
  53   28   52 1
  54   29   30 ar
  55   29   53 1
  56   30   31 ar
  57   30   54 1
  58   31   32 ar
  59   31   55 1

#	End of record

