#	Name: ASD00170480
#	Creating user name:	WinNT
#	Creation time:	15. 06. 2019 18:32

#	Modifying user name:	WinNT
#	Modification time:	15. 06. 2019 18:32

#	Program:	/corina/corina34_cracker 3.40 0067  02.08.2006

@<TRIPOS>MOLECULE
ASD00170480
  35   38    0    0    0
SMALL
NO_CHARGES


@<TRIPOS>ATOM
   1 C1            -0.0282     1.3914    -0.0182 C.ar    
   2 C2            -0.0016    -0.0105    -0.0086 C.ar    
   3 C3            -1.1920    -0.7249     0.0054 C.ar    
   4 C4            -2.3968    -0.0560     0.0099 C.ar    
   5 C5            -2.4366     1.3353     0.0005 C.ar    
   6 C6            -1.2490     2.0628    -0.0077 C.ar    
   7 C7            -3.8278    -0.5309     0.0246 C.3     
   8 C8            -4.6740     0.7235     0.0226 C.2     
   9 C9            -3.8607     1.7960     0.0087 C.2     
  10 S10           -6.3511     1.2673     0.0321 S.3     
  11 C11           -5.8100     2.9409     0.0162 C.2     
  12 N12           -4.5203     2.9755     0.0061 N.2     
  13 N13           -6.6401     4.0502     0.0152 N.pl3   
  14 N14            1.2210    -0.6875    -0.0137 N.am    
  15 C15            1.3476    -1.8548     0.6479 C.2     
  16 O16            0.4339    -2.2671     1.3308 O.2     
  17 C17            2.6245    -2.6478     0.5393 C.3     
  18 C18            1.2362     2.1553    -0.0331 C.2     
  19 C19            1.5468     3.1679    -0.8860 C.2     
  20 C20            2.8426     3.6041    -0.5436 C.2     
  21 C21            3.2544     2.8445     0.4900 C.2     
  22 O22            2.2793     1.9738     0.7994 O.3     
  23 H23           -1.1737    -1.8047     0.0124 H       
  24 H24           -1.2744     3.1425    -0.0149 H       
  25 H25           -4.0360    -1.1270    -0.8639 H       
  26 H26           -4.0218    -1.1145     0.9244 H       
  27 H27           -7.6032     3.9352     0.0237 H       
  28 H28           -6.2581     4.9418     0.0059 H       
  29 H29            1.9784    -0.3172    -0.4934 H       
  30 H30            3.3130    -2.3374     1.3252 H       
  31 H31            2.4032    -3.7095     0.6485 H       
  32 H32            3.0808    -2.4701    -0.4346 H       
  33 H33            0.9216     3.5614    -1.6739 H       
  34 H34            3.4000     4.3972    -1.0198 H       
  35 H35            4.2084     2.9251     0.9898 H       
@<TRIPOS>BOND
   1    1    2 ar
   2    1   18 1
   3    1    6 ar
   4    2    3 ar
   5    2   14 1
   6    3    4 ar
   7    3   23 1
   8    4    5 ar
   9    4    7 1
  10    5    6 ar
  11    5    9 1
  12    6   24 1
  13    7    8 1
  14    7   25 1
  15    7   26 1
  16    8    9 2
  17    8   10 1
  18    9   12 1
  19   10   11 1
  20   11   12 2
  21   11   13 1
  22   13   27 1
  23   13   28 1
  24   14   15 am
  25   14   29 1
  26   15   16 2
  27   15   17 1
  28   17   30 1
  29   17   31 1
  30   17   32 1
  31   18   19 2
  32   18   22 1
  33   19   20 1
  34   19   33 1
  35   20   21 2
  36   20   34 1
  37   21   22 1
  38   21   35 1

#	End of record

