#	Name: ASD06020201
#	Creating user name:	WinNT
#	Creation time:	15. 06. 2019 21:04

#	Modifying user name:	WinNT
#	Modification time:	15. 06. 2019 21:04

#	Program:	/corina/corina34_cracker 3.40 0067  02.08.2006

@<TRIPOS>MOLECULE
ASD06020201
  48   49    0    0    0
SMALL
NO_CHARGES


@<TRIPOS>ATOM
   1 C1             1.9431     2.1922     1.8168 C.2     
   2 N2             2.6670     1.1632     2.3000 N.am    
   3 S3             1.1601     2.0567     0.2441 S.3     
   4 S4             1.7785     3.6284     2.7340 S.2     
   5 C5             2.7107    -0.1074     1.5720 C.3     
   6 C6             1.2886    -0.6439     1.3968 C.3     
   7 C7             3.3452     0.1139     0.1975 C.3     
   8 C8             3.4102     1.3152     3.5533 C.3     
   9 C9             2.9889     0.2176     4.5325 C.3     
  10 C10            4.9101     1.2011     3.2739 C.3     
  11 C11           -1.0835     3.6178     0.4326 C.ar    
  12 C12            0.2834     3.5847     0.2062 C.ar    
  13 C13            0.9565     4.7844    -0.0528 C.ar    
  14 C14            0.2169     5.9638    -0.0710 C.ar    
  15 C15           -1.1422     5.9090     0.1648 C.ar    
  16 N16           -1.7440     4.7596     0.4056 N.ar    
  17 C17            2.8965     5.8366    -0.9341 C.2     
  18 C18            4.3635     5.9023    -1.0888 C.ar    
  19 C19            5.1441     6.5388    -0.1200 C.ar    
  20 C20            6.5155     6.5961    -0.2718 C.ar    
  21 C21            7.1168     6.0255    -1.3793 C.ar    
  22 C22            6.3508     5.3940    -2.3427 C.ar    
  23 C23            4.9789     5.3231    -2.2020 C.ar    
  24 O24            2.1969     6.7197    -1.3912 O.2     
  25 N25            2.3330     4.7979    -0.2860 N.am    
  26 Cl26           4.0205     4.5229    -3.4082 Cl      
  27 Cl27           4.3918     7.2562     1.2704 Cl      
  28 H28            3.3042    -0.8281     2.1345 H       
  29 H29            0.6722     0.1124     0.9107 H       
  30 H30            1.3128    -1.5433     0.7816 H       
  31 H31            0.8675    -0.8829     2.3734 H       
  32 H32            4.3829     0.4235     0.3220 H       
  33 H33            3.3088    -0.8140    -0.3731 H       
  34 H34            2.7960     0.8900    -0.3355 H       
  35 H35            3.1947     2.2916     3.9874 H       
  36 H36            3.2879    -0.7541     4.1395 H       
  37 H37            3.4720     0.3845     5.4952 H       
  38 H38            1.9067     0.2405     4.6602 H       
  39 H39            5.1934     1.9247     2.5094 H       
  40 H40            5.4666     1.4030     4.1891 H       
  41 H41            5.1390     0.1945     2.9240 H       
  42 H42           -1.6147     2.6982     0.6290 H       
  43 H43            0.7003     6.9096    -0.2668 H       
  44 H44           -1.7214     6.8204     0.1524 H       
  45 H45            7.1201     7.0880     0.4758 H       
  46 H46            8.1897     6.0735    -1.4925 H       
  47 H47            6.8274     4.9515    -3.2049 H       
  48 H48            2.8838     4.0597     0.0183 H       
@<TRIPOS>BOND
   1    1    2 am
   2    1    3 1
   3    1    4 2
   4    2    5 1
   5    2    8 1
   6    3   12 1
   7    5    6 1
   8    5    7 1
   9    5   28 1
  10    6   29 1
  11    6   30 1
  12    6   31 1
  13    7   32 1
  14    7   33 1
  15    7   34 1
  16    8    9 1
  17    8   10 1
  18    8   35 1
  19    9   36 1
  20    9   37 1
  21    9   38 1
  22   10   39 1
  23   10   40 1
  24   10   41 1
  25   11   12 ar
  26   11   16 ar
  27   11   42 1
  28   12   13 ar
  29   13   14 ar
  30   13   25 1
  31   14   15 ar
  32   14   43 1
  33   15   16 ar
  34   15   44 1
  35   17   18 1
  36   17   24 2
  37   17   25 am
  38   18   19 ar
  39   18   23 ar
  40   19   20 ar
  41   19   27 1
  42   20   21 ar
  43   20   45 1
  44   21   22 ar
  45   21   46 1
  46   22   23 ar
  47   22   47 1
  48   23   26 1
  49   25   48 1

#	End of record

