#	Name: ASD02198092
#	Creating user name:	WinNT
#	Creation time:	15. 06. 2019 20:18

#	Modifying user name:	WinNT
#	Modification time:	15. 06. 2019 20:18

#	Program:	/corina/corina34_cracker 3.40 0067  02.08.2006

@<TRIPOS>MOLECULE
ASD02198092
  47   49    0    0    0
SMALL
NO_CHARGES


@<TRIPOS>ATOM
   1 C1             0.1743     1.2482    -1.4342 C.2     
   2 C2             0.2159    -0.1269    -1.3634 C.2     
   3 C3            -0.9559    -0.9363    -1.2144 C.1     
   4 S4             1.7413     1.8964    -1.6104 S.3     
   5 C5             2.4748     0.3007    -1.5899 C.2     
   6 C6             1.5005    -0.6594    -1.4501 C.2     
   7 C7             3.8554     0.0429    -1.7002 C.2     
   8 C8             4.7940     1.1499    -1.9898 C.ar    
   9 O9             4.2769    -1.0921    -1.5572 O.2     
  10 N10            1.7689    -2.0183    -1.4002 N.pl3   
  11 N11           -0.9814     1.9999    -1.3762 N.am    
  12 N12           -1.8855    -1.5785    -1.0963 N.1     
  13 C13            4.8037     1.7487    -3.2500 C.ar    
  14 C14           -0.9157     3.3438    -1.4544 C.2     
  15 O15            0.1614     3.8936    -1.5761 O.2     
  16 C16           -2.1534     4.1489    -1.3923 C.ar    
  17 C17           -2.0818     5.5426    -1.3458 C.ar    
  18 C18            5.6810     2.7807    -3.5134 C.ar    
  19 C19            6.5496     3.2218    -2.5313 C.ar    
  20 C20            6.5453     2.6318    -1.2795 C.ar    
  21 C21            5.6693     1.6031    -1.0017 C.ar    
  22 C22            7.5051     4.3493    -2.8259 C.3     
  23 C23            3.8585     1.2691    -4.3212 C.3     
  24 C24           -3.3994     3.5197    -1.3857 C.ar    
  25 C25           -4.5510     4.2773    -1.3275 C.ar    
  26 C26           -4.4728     5.6576    -1.2763 C.ar    
  27 C27           -3.2409     6.2880    -1.2878 C.ar    
  28 C28           -0.7412     6.2308    -1.3583 C.3     
  29 H29            2.6835    -2.3347    -1.4651 H       
  30 H30            1.0421    -2.6529    -1.3004 H       
  31 H31           -1.8410     1.5612    -1.2791 H       
  32 H32            5.6897     3.2448    -4.4886 H       
  33 H33            7.2262     2.9805    -0.5171 H       
  34 H34            5.6669     1.1435    -0.0244 H       
  35 H35            7.0321     5.3000    -2.5798 H       
  36 H36            8.4075     4.2267    -2.2271 H       
  37 H37            7.7666     4.3368    -3.8840 H       
  38 H38            2.8932     1.7609    -4.2008 H       
  39 H39            4.2689     1.5093    -5.3020 H       
  40 H40            3.7297     0.1901    -4.2356 H       
  41 H41           -3.4619     2.4423    -1.4264 H       
  42 H42           -5.5157     3.7918    -1.3223 H       
  43 H43           -5.3773     6.2460    -1.2316 H       
  44 H44           -3.1868     7.3659    -1.2476 H       
  45 H45           -0.3842     6.3123    -2.3849 H       
  46 H46           -0.8403     7.2272    -0.9278 H       
  47 H47           -0.0294     5.6505    -0.7711 H       
@<TRIPOS>BOND
   1    1    2 2
   2    1    4 1
   3    1   11 1
   4    2    3 1
   5    2    6 1
   6    3   12 3
   7    4    5 1
   8    5    6 2
   9    5    7 1
  10    6   10 1
  11    7    8 1
  12    7    9 2
  13    8   13 ar
  14    8   21 ar
  15   10   29 1
  16   10   30 1
  17   11   14 am
  18   11   31 1
  19   13   18 ar
  20   13   23 1
  21   14   15 2
  22   14   16 1
  23   16   17 ar
  24   16   24 ar
  25   17   28 1
  26   17   27 ar
  27   18   19 ar
  28   18   32 1
  29   19   20 ar
  30   19   22 1
  31   20   21 ar
  32   20   33 1
  33   21   34 1
  34   22   35 1
  35   22   36 1
  36   22   37 1
  37   23   38 1
  38   23   39 1
  39   23   40 1
  40   24   25 ar
  41   24   41 1
  42   25   26 ar
  43   25   42 1
  44   26   27 ar
  45   26   43 1
  46   27   44 1
  47   28   45 1
  48   28   46 1
  49   28   47 1

#	End of record

