#	Name: ASD01882983
#	Creating user name:	WinNT
#	Creation time:	15. 06. 2019 19:45

#	Modifying user name:	WinNT
#	Modification time:	15. 06. 2019 19:45

#	Program:	/corina/corina34_cracker 3.40 0067  02.08.2006

@<TRIPOS>MOLECULE
ASD01882983
  55   58    0    0    0
SMALL
NO_CHARGES


@<TRIPOS>ATOM
   1 P1            -0.0180     1.4758     0.0102 P.3     
   2 O2             0.0021    -0.0041     0.0020 O.2     
   3 O3             1.4924     2.0330    -0.0013 O.3     
   4 C4            -0.8953     2.0767    -1.4595 C.ar    
   5 C5            -1.9075     1.3189    -2.0182 C.ar    
   6 C6            -2.5760     1.7768    -3.1382 C.ar    
   7 C7            -2.2327     2.9927    -3.6991 C.ar    
   8 C8            -1.2212     3.7509    -3.1397 C.ar    
   9 C9            -0.5556     3.2950    -2.0172 C.ar    
  10 C10           -0.8671     2.0608     1.5026 C.ar    
  11 C11           -0.5128     3.2705     2.0701 C.ar    
  12 C12           -1.1597     3.7162     3.2075 C.ar    
  13 C13           -2.1614     2.9526     3.7771 C.ar    
  14 C14           -2.5163     1.7433     3.2090 C.ar    
  15 C15           -1.8723     1.2996     2.0692 C.ar    
  16 C16            2.4699     1.6523     0.9691 C.3     
  17 C17            3.7717     2.3507     0.6717 C.ar    
  18 C18            4.0360     3.5873     1.2300 C.ar    
  19 C19            5.2301     4.2280     0.9571 C.ar    
  20 C20            6.1602     3.6318     0.1262 C.ar    
  21 C21            5.8963     2.3947    -0.4314 C.ar    
  22 C22            4.7040     1.7521    -0.1551 C.ar    
  23 C23            7.4616     4.3306    -0.1721 C.3     
  24 C24            8.6280     3.4582     0.2961 C.3     
  25 C25            9.9492     4.1677    -0.0068 C.3     
  26 C26           10.0652     4.4086    -1.5132 C.3     
  27 C27            8.8987     5.2810    -1.9814 C.3     
  28 C28            7.5775     4.5715    -1.6786 C.3     
  29 H29           -2.1756     0.3689    -1.5800 H       
  30 H30           -3.3663     1.1844    -3.5752 H       
  31 H31           -2.7546     3.3501    -4.5745 H       
  32 H32           -0.9528     4.7008    -3.5781 H       
  33 H33            0.2322     3.8891    -1.5781 H       
  34 H34            0.2698     3.8671     1.6251 H       
  35 H35           -0.8824     4.6610     3.6512 H       
  36 H36           -2.6664     3.3005     4.6660 H       
  37 H37           -3.2986     1.1465     3.6543 H       
  38 H38           -2.1521     0.3566     1.6233 H       
  39 H39            2.1244     1.9357     1.9633 H       
  40 H40            2.6193     0.5732     0.9303 H       
  41 H41            3.3093     4.0531     1.8792 H       
  42 H42            5.4363     5.1944     1.3928 H       
  43 H43            6.6228     1.9291    -1.0809 H       
  44 H44            4.4994     0.7840    -0.5878 H       
  45 H45            7.4893     5.2861     0.3518 H       
  46 H46            8.5454     3.2866     1.3693 H       
  47 H47            8.6002     2.5028    -0.2278 H       
  48 H48            9.9770     5.1232     0.5171 H       
  49 H49           10.7802     3.5462     0.3268 H       
  50 H50           11.0064     4.9141    -1.7290 H       
  51 H51           10.0374     3.4532    -2.0371 H       
  52 H52            8.9265     6.2365    -1.4575 H       
  53 H53            8.9813     5.4526    -3.0547 H       
  54 H54            7.5497     3.6161    -2.2025 H       
  55 H55            6.7465     5.1930    -2.0122 H       
@<TRIPOS>BOND
   1    1    2 2
   2    1    3 1
   3    1    4 1
   4    1   10 1
   5    3   16 1
   6    4    5 ar
   7    4    9 ar
   8    5    6 ar
   9    5   29 1
  10    6    7 ar
  11    6   30 1
  12    7    8 ar
  13    7   31 1
  14    8    9 ar
  15    8   32 1
  16    9   33 1
  17   10   11 ar
  18   10   15 ar
  19   11   12 ar
  20   11   34 1
  21   12   13 ar
  22   12   35 1
  23   13   14 ar
  24   13   36 1
  25   14   15 ar
  26   14   37 1
  27   15   38 1
  28   16   17 1
  29   16   39 1
  30   16   40 1
  31   17   18 ar
  32   17   22 ar
  33   18   19 ar
  34   18   41 1
  35   19   20 ar
  36   19   42 1
  37   20   21 ar
  38   20   23 1
  39   21   22 ar
  40   21   43 1
  41   22   44 1
  42   23   24 1
  43   23   28 1
  44   23   45 1
  45   24   25 1
  46   24   46 1
  47   24   47 1
  48   25   26 1
  49   25   48 1
  50   25   49 1
  51   26   27 1
  52   26   50 1
  53   26   51 1
  54   27   28 1
  55   27   52 1
  56   27   53 1
  57   28   54 1
  58   28   55 1

#	End of record

