#	Name: ASD09690003
#	Creating user name:	WinNT
#	Creation time:	15. 06. 2019 21:22

#	Modifying user name:	WinNT
#	Modification time:	15. 06. 2019 21:22

#	Program:	/corina/corina34_cracker 3.40 0067  02.08.2006

@<TRIPOS>MOLECULE
ASD09690003
  41   42    0    0    0
SMALL
NO_CHARGES


@<TRIPOS>ATOM
   1 C1            -0.0162     1.3460     0.0094 C.2     
   2 C2             0.0021    -0.0041     0.0020 C.2     
   3 N3             1.1999    -0.6655    -0.0130 N.am    
   4 C4             2.3594     0.0169    -0.0204 C.2     
   5 N5             2.3702     1.3628    -0.0128 N.am    
   6 C6             1.2111     2.0516     0.0015 C.2     
   7 C7             1.2199    -2.1303    -0.0205 C.3     
   8 O8             1.2200     3.2694     0.0080 O.2     
   9 O9             3.4124    -0.5909    -0.0337 O.2     
  10 O10            2.0417    -2.6275     1.0580 O.3     
  11 C11            2.3941    -3.9754     0.6776 C.3     
  12 C12            2.6885    -3.8940    -0.8367 C.3     
  13 C13            1.8982    -2.6522    -1.3065 C.3     
  14 O14            4.0874    -3.7134    -1.0658 O.3     
  15 C15            3.6394    -4.4352     1.4384 C.3     
  16 C16            3.3124    -4.5526     2.9284 C.3     
  17 P17            4.7962    -5.1004     3.8348 P.3     
  18 O18            5.3232    -6.4136     3.2144 O.co2   
  19 O19            5.8885    -4.0117     3.7406 O.co2   
  20 O20            4.4194    -5.3502     5.3800 O.3     
  21 P21            5.2533    -5.8293     6.6712 P.3     
  22 O22            4.2374    -6.3810     7.7918 O.3     
  23 O23            6.2315    -6.9539     6.2643 O.co2   
  24 O24            6.0503    -4.6351     7.2418 O.co2   
  25 P25            4.4174    -7.2574     9.1303 P.3     
  26 O26            5.4664    -8.3924     8.8743 O.co2   
  27 O27            4.9183    -6.3361    10.2943 O.co2   
  28 O28            3.0424    -7.8963     9.5250 O.co2   
  29 H29           -0.9547     1.8805     0.0168 H       
  30 H30           -0.9243    -0.5593     0.0082 H       
  31 H31            3.2152     1.8391    -0.0180 H       
  32 H32            0.2066    -2.5233     0.0623 H       
  33 H33            1.5614    -4.6530     0.8664 H       
  34 H34            2.3299    -4.7895    -1.3442 H       
  35 H35            1.1489    -2.9338    -2.0463 H       
  36 H36            2.5746    -1.9006    -1.7136 H       
  37 H37            4.3287    -3.6558    -2.0004 H       
  38 H38            3.9593    -5.4057     1.0590 H       
  39 H39            4.4397    -3.7085     1.2982 H       
  40 H40            2.9926    -3.5821     3.3078 H       
  41 H41            2.5121    -5.2792     3.0686 H       
@<TRIPOS>BOND
   1    1    2 2
   2    1    6 1
   3    1   29 1
   4    2    3 1
   5    2   30 1
   6    3    4 am
   7    3    7 1
   8    4    5 am
   9    4    9 2
  10    5    6 am
  11    5   31 1
  12    6    8 2
  13    7   10 1
  14    7   13 1
  15    7   32 1
  16   10   11 1
  17   11   12 1
  18   11   15 1
  19   11   33 1
  20   12   13 1
  21   12   14 1
  22   12   34 1
  23   13   35 1
  24   13   36 1
  25   14   37 1
  26   15   16 1
  27   15   38 1
  28   15   39 1
  29   16   17 1
  30   16   40 1
  31   16   41 1
  32   17   18 ar
  33   17   19 ar
  34   17   20 1
  35   20   21 1
  36   21   22 1
  37   21   23 ar
  38   21   24 ar
  39   22   25 1
  40   25   26 ar
  41   25   27 ar
  42   25   28 ar

#	End of record

