#	Name: ASD00170553
#	Creating user name:	WinNT
#	Creation time:	15. 06. 2019 18:32

#	Modifying user name:	WinNT
#	Modification time:	15. 06. 2019 18:32

#	Program:	/corina/corina34_cracker 3.40 0067  02.08.2006

@<TRIPOS>MOLECULE
ASD00170553
  56   59    0    0    0
SMALL
NO_CHARGES


@<TRIPOS>ATOM
   1 C1             0.3773     1.7336     0.7074 C.ar    
   2 N2             0.3358     0.3471     0.5437 N.3     
   3 C3            -1.0506    -0.1305     0.4476 C.3     
   4 C4            -1.0509    -1.6392     0.1900 C.3     
   5 N5            -0.3368    -2.3197     1.2793 N.3     
   6 C6             1.0496    -1.8420     1.3754 C.3     
   7 C7             1.0499    -0.3333     1.6331 C.3     
   8 C8            -0.3804    -3.7779     1.1072 C.3     
   9 C9             0.5577    -4.4282     2.0912 C.2     
  10 C10            1.7698    -4.8532     1.7707 C.2     
  11 S11            2.5764    -5.5539     3.1623 S.3     
  12 C12            1.2418    -5.2592     4.1807 C.2     
  13 C13            0.2266    -4.6455     3.4838 C.2     
  14 C14           -1.0518    -4.2630     4.0824 C.2     
  15 O15           -1.1988    -3.1447     4.5413 O.2     
  16 C16           -2.1662    -5.2347     4.1305 C.ar    
  17 C17           -3.3493    -4.9117     4.7964 C.ar    
  18 C18           -4.3851    -5.8223     4.8371 C.ar    
  19 C19           -4.2525    -7.0534     4.2200 C.ar    
  20 C20           -3.0818    -7.3800     3.5584 C.ar    
  21 C21           -2.0411    -6.4763     3.5050 C.ar    
  22 N22            1.1889    -5.5863     5.5204 N.pl3   
  23 C23            1.5991     2.3851     0.8191 C.ar    
  24 C24            1.6365     3.7562     0.9803 C.ar    
  25 C25            0.4596     4.4805     1.0306 C.ar    
  26 C26           -0.7584     3.8350     0.9201 C.ar    
  27 C27           -0.8029     2.4648     0.7530 C.ar    
  28 C28            0.5044     5.9765     1.2066 C.3     
  29 F29            0.5565     6.5924    -0.0485 F       
  30 F30           -0.6421     6.4005     1.8869 F       
  31 F31            1.6405     6.3254     1.9447 F       
  32 C32           -5.6635    -5.4753     5.5558 C.3     
  33 F33           -6.5484    -4.8612     4.6630 F       
  34 F34           -6.2460    -6.6426     6.0610 F       
  35 F35           -5.3827    -4.6001     6.6104 F       
  36 H36           -1.5730     0.0791     1.3810 H       
  37 H37           -1.5546     0.3787    -0.3739 H       
  38 H38           -2.0783    -2.0006     0.1471 H       
  39 H39           -0.5523    -1.8465    -0.7569 H       
  40 H40            1.5536    -2.3513     2.1969 H       
  41 H41            1.5721    -2.0516     0.4420 H       
  42 H42            2.0773     0.0281     1.6759 H       
  43 H43            0.5514    -0.1260     2.5800 H       
  44 H44           -1.3954    -4.1343     1.2829 H       
  45 H45           -0.0764    -4.0332     0.0921 H       
  46 H46            2.2040    -4.7786     0.7847 H       
  47 H47           -3.4538    -3.9513     5.2792 H       
  48 H48           -5.0662    -7.7627     4.2551 H       
  49 H49           -2.9845    -8.3429     3.0789 H       
  50 H50           -1.1279    -6.7324     2.9882 H       
  51 H51            1.9149    -6.0848     5.9270 H       
  52 H52            0.4256    -5.3177     6.0554 H       
  53 H53            2.5186     1.8200     0.7803 H       
  54 H54            2.5861     4.2633     1.0676 H       
  55 H55           -1.6757     4.4036     0.9601 H       
  56 H56           -1.7544     1.9614     0.6667 H       
@<TRIPOS>BOND
   1    1    2 1
   2    1   23 ar
   3    1   27 ar
   4    2    3 1
   5    2    7 1
   6    3    4 1
   7    3   36 1
   8    3   37 1
   9    4    5 1
  10    4   38 1
  11    4   39 1
  12    5    6 1
  13    5    8 1
  14    6    7 1
  15    6   40 1
  16    6   41 1
  17    7   42 1
  18    7   43 1
  19    8    9 1
  20    8   44 1
  21    8   45 1
  22    9   10 2
  23    9   13 1
  24   10   11 1
  25   10   46 1
  26   11   12 1
  27   12   13 2
  28   12   22 1
  29   13   14 1
  30   14   15 2
  31   14   16 1
  32   16   17 ar
  33   16   21 ar
  34   17   18 ar
  35   17   47 1
  36   18   19 ar
  37   18   32 1
  38   19   20 ar
  39   19   48 1
  40   20   21 ar
  41   20   49 1
  42   21   50 1
  43   22   51 1
  44   22   52 1
  45   23   24 ar
  46   23   53 1
  47   24   25 ar
  48   24   54 1
  49   25   26 ar
  50   25   28 1
  51   26   27 ar
  52   26   55 1
  53   27   56 1
  54   28   29 1
  55   28   30 1
  56   28   31 1
  57   32   33 1
  58   32   34 1
  59   32   35 1

#	End of record

