#	Name: ASD01884449
#	Creating user name:	WinNT
#	Creation time:	15. 06. 2019 19:48

#	Modifying user name:	WinNT
#	Modification time:	15. 06. 2019 19:48

#	Program:	/corina/corina34_cracker 3.40 0067  02.08.2006

@<TRIPOS>MOLECULE
ASD01884449
  45   47    0    0    0
SMALL
NO_CHARGES


@<TRIPOS>ATOM
   1 C1             1.1746     1.4543     0.6693 C.2     
   2 C2             0.9918     0.1062     0.6066 C.2     
   3 C3             2.0770    -0.7186     0.2394 C.2     
   4 C4             3.2875    -0.1565    -0.0460 C.2     
   5 N5             3.4561     1.1876     0.0208 N.am    
   6 C6             2.4369     1.9953     0.3679 C.2     
   7 C7             1.9025    -2.1904     0.1646 C.ar    
   8 C8             4.7649     1.7681    -0.2896 C.3     
   9 O9             2.6095     3.2023     0.4225 O.2     
  10 C10            4.8389     2.0820    -1.7617 C.ar    
  11 C11            4.4373     3.3210    -2.2250 C.ar    
  12 C12            4.5049     3.6095    -3.5750 C.ar    
  13 C13            4.9746     2.6579    -4.4628 C.ar    
  14 C14            5.3764     1.4181    -3.9985 C.ar    
  15 C15            5.3137     1.1328    -2.6475 C.ar    
  16 C16            1.6213    -2.9198     1.3184 C.ar    
  17 C17            2.0139    -2.8453    -1.0605 C.ar    
  18 C18            1.8513    -4.2134    -1.1270 C.ar    
  19 C19            1.5765    -4.9378     0.0248 C.ar    
  20 C20            1.4597    -4.2876     1.2457 C.ar    
  21 Cl21           5.0593     3.0193    -6.1586 Cl      
  22 O22            1.4158    -6.2855    -0.0439 O.3     
  23 C23            1.0176    -6.9534     1.1551 C.3     
  24 C24            0.3022    -8.2580     0.7986 C.3     
  25 C25            2.2543    -7.2644     2.0004 C.3     
  26 H26            0.3556     2.1026     0.9439 H       
  27 H27            0.0290    -0.3263     0.8352 H       
  28 H28            4.1180    -0.7871    -0.3269 H       
  29 H29            4.9013     2.6845     0.2846 H       
  30 H30            5.5488     1.0566    -0.0300 H       
  31 H31            4.0703     4.0636    -1.5320 H       
  32 H32            4.1907     4.5773    -3.9369 H       
  33 H33            5.7432     0.6749    -4.6910 H       
  34 H34            5.6273     0.1650    -2.2850 H       
  35 H35            1.5304    -2.4145     2.2685 H       
  36 H36            2.2270    -2.2821    -1.9571 H       
  37 H37            1.9375    -4.7214    -2.0761 H       
  38 H38            1.2459    -4.8539     2.1401 H       
  39 H39            0.3424    -6.3117     1.7212 H       
  40 H40            0.9774    -8.8996     0.2324 H       
  41 H41           -0.0016    -8.7674     1.7131 H       
  42 H42           -0.5789    -8.0364     0.1963 H       
  43 H43            1.9506    -7.7738     2.9150 H       
  44 H44            2.9295    -7.9060     1.4343 H       
  45 H45            2.7640    -6.3350     2.2544 H       
@<TRIPOS>BOND
   1    1    2 2
   2    1    6 1
   3    1   26 1
   4    2    3 1
   5    2   27 1
   6    3    4 2
   7    3    7 1
   8    4    5 1
   9    4   28 1
  10    5    6 am
  11    5    8 1
  12    6    9 2
  13    7   16 ar
  14    7   17 ar
  15    8   10 1
  16    8   29 1
  17    8   30 1
  18   10   11 ar
  19   10   15 ar
  20   11   12 ar
  21   11   31 1
  22   12   13 ar
  23   12   32 1
  24   13   14 ar
  25   13   21 1
  26   14   15 ar
  27   14   33 1
  28   15   34 1
  29   16   20 ar
  30   16   35 1
  31   17   18 ar
  32   17   36 1
  33   18   19 ar
  34   18   37 1
  35   19   20 ar
  36   19   22 1
  37   20   38 1
  38   22   23 1
  39   23   24 1
  40   23   25 1
  41   23   39 1
  42   24   40 1
  43   24   41 1
  44   24   42 1
  45   25   43 1
  46   25   44 1
  47   25   45 1

#	End of record

