#	Name: ASD01410443
#	Creating user name:	WinNT
#	Creation time:	15. 06. 2019 19:17

#	Modifying user name:	WinNT
#	Modification time:	15. 06. 2019 19:17

#	Program:	/corina/corina34_cracker 3.40 0067  02.08.2006

@<TRIPOS>MOLECULE
ASD01410443
  72   75    0    0    0
SMALL
NO_CHARGES


@<TRIPOS>ATOM
   1 C1             1.1310     4.1076    -0.8630 C.ar    
   2 C2             1.8012     4.1495    -2.0776 C.ar    
   3 C3             3.0041     3.4840    -2.2089 C.ar    
   4 N4             3.5193     2.8123    -1.1971 N.ar    
   5 C5             2.9105     2.7489    -0.0242 C.ar    
   6 C6             1.6977     3.3947     0.1794 C.ar    
   7 C7             1.2222     4.9128    -3.2409 C.3     
   8 C8             1.7282     6.3563    -3.2063 C.3     
   9 N9             1.1653     7.0983    -4.3372 N.pl3   
  10 N10            0.0542     7.7451    -4.3062 N.2     
  11 C11           -0.1489     8.2909    -5.4839 C.2     
  12 C12            0.9470     7.9256    -6.2691 C.2     
  13 N13            1.7176     7.1961    -5.4944 N.2     
  14 C14            1.0081     3.3202     1.5173 C.3     
  15 F15           -0.1864     4.0468     1.4674 F       
  16 F16            0.7288     1.9842     1.8243 F       
  17 F17            1.8418     3.8606     2.5024 F       
  18 F18            5.9076     3.3159     0.9796 F       
  19 C19            5.8430     1.9917     0.7199 C.ar    
  20 C20            4.6102     1.3440     0.7242 C.ar    
  21 O21            3.4762     2.0466     0.9893 O.3     
  22 C22            7.0006     1.2871     0.4455 C.ar    
  23 C23            6.9408    -0.0725     0.1776 C.ar    
  24 C24            5.7014    -0.7314     0.1868 C.ar    
  25 C25            4.5355    -0.0097     0.4597 C.ar    
  26 C26            5.6287    -2.1746    -0.0970 C.2     
  27 O27            6.6496    -2.8168    -0.2457 O.2     
  28 O28            4.4299    -2.7832    -0.1918 O.3     
  29 N29            8.1080    -0.7823    -0.0999 N.am    
  30 C30            8.7611    -1.4196     0.8920 C.2     
  31 C31            8.6248    -0.8357    -1.4697 C.3     
  32 C32            7.5260    -1.3346    -2.4102 C.3     
  33 C33            9.0696     0.5630    -1.9018 C.3     
  34 O34            8.2857    -1.4535     2.0072 O.2     
  35 C35           10.0821    -2.0900     0.6154 C.3     
  36 C36           10.7890    -2.3897     1.9388 C.3     
  37 C37           12.1302    -3.0704     1.6579 C.3     
  38 C38           11.8898    -4.3779     0.9006 C.3     
  39 C39           11.1829    -4.0782    -0.4228 C.3     
  40 C40            9.8418    -3.3975    -0.1420 C.3     
  41 C41           13.2310    -5.0585     0.6197 C.3     
  42 H42            0.1910     4.6231    -0.7327 H       
  43 H43            3.5296     3.5136    -3.1520 H       
  44 H44            1.5308     4.4419    -4.1742 H       
  45 H45            0.1343     4.9074    -3.1736 H       
  46 H46            1.4195     6.8272    -2.2730 H       
  47 H47            2.8161     6.3617    -3.2736 H       
  48 H48           -0.9907     8.8974    -5.7835 H       
  49 H49            1.1264     8.1919    -7.3002 H       
  50 H50            7.9530     1.7964     0.4394 H       
  51 H51            3.5787    -0.5105     0.4680 H       
  52 H52            4.4328    -3.7318    -0.3794 H       
  53 H53            9.4752    -1.5163    -1.5110 H       
  54 H54            6.6722    -0.6588    -2.3623 H       
  55 H55            7.9078    -1.3659    -3.4307 H       
  56 H56            7.2153    -2.3347    -2.1077 H       
  57 H57            9.7791     0.9592    -1.1753 H       
  58 H58            9.5453     0.5067    -2.8808 H       
  59 H59            8.2013     1.2196    -1.9569 H       
  60 H60           10.7052    -1.4299     0.0120 H       
  61 H61           10.9602    -1.4582     2.4783 H       
  62 H62           10.1659    -3.0498     2.5422 H       
  63 H63           12.7533    -2.4103     1.0545 H       
  64 H64           12.6337    -3.2839     2.6007 H       
  65 H65           11.2667    -5.0380     1.5040 H       
  66 H66           11.8060    -3.4181    -1.0262 H       
  67 H67           11.0117    -5.0097    -0.9624 H       
  68 H68            9.2186    -4.0576     0.4614 H       
  69 H69            9.3382    -3.1840    -1.0848 H       
  70 H70           13.7345    -5.2721     1.5625 H       
  71 H71           13.0597    -5.9900     0.0802 H       
  72 H72           13.8541    -4.3984     0.0163 H       
@<TRIPOS>BOND
   1    1    2 ar
   2    1    6 ar
   3    1   42 1
   4    2    3 ar
   5    2    7 1
   6    3    4 ar
   7    3   43 1
   8    4    5 ar
   9    5    6 ar
  10    5   21 1
  11    6   14 1
  12    7    8 1
  13    7   44 1
  14    7   45 1
  15    8    9 1
  16    8   46 1
  17    8   47 1
  18    9   10 1
  19    9   13 1
  20   10   11 2
  21   11   12 1
  22   11   48 1
  23   12   13 2
  24   12   49 1
  25   14   15 1
  26   14   16 1
  27   14   17 1
  28   18   19 1
  29   19   20 ar
  30   19   22 ar
  31   20   21 1
  32   20   25 ar
  33   22   23 ar
  34   22   50 1
  35   23   24 ar
  36   23   29 1
  37   24   25 ar
  38   24   26 1
  39   25   51 1
  40   26   27 2
  41   26   28 1
  42   28   52 1
  43   29   30 am
  44   29   31 1
  45   30   34 2
  46   30   35 1
  47   31   32 1
  48   31   33 1
  49   31   53 1
  50   32   54 1
  51   32   55 1
  52   32   56 1
  53   33   57 1
  54   33   58 1
  55   33   59 1
  56   35   36 1
  57   35   40 1
  58   35   60 1
  59   36   37 1
  60   36   61 1
  61   36   62 1
  62   37   38 1
  63   37   63 1
  64   37   64 1
  65   38   39 1
  66   38   41 1
  67   38   65 1
  68   39   40 1
  69   39   66 1
  70   39   67 1
  71   40   68 1
  72   40   69 1
  73   41   70 1
  74   41   71 1
  75   41   72 1

#	End of record

