#	Name: ASD08150633
#	Creating user name:	WinNT
#	Creation time:	15. 06. 2019 21:16

#	Modifying user name:	WinNT
#	Modification time:	15. 06. 2019 21:16

#	Program:	/corina/corina34_cracker 3.40 0067  02.08.2006

@<TRIPOS>MOLECULE
ASD08150633
  80   87    0    0    0
SMALL
NO_CHARGES


@<TRIPOS>ATOM
   1 N1             0.1413     1.5941     0.0439 N.am    
   2 C2             0.6439     0.9272     1.1010 C.2     
   3 C3             1.9158     0.3226     1.0371 C.2     
   4 C4             2.6552     0.4053    -0.0982 C.2     
   5 C5             2.1295     1.1061    -1.2124 C.ar    
   6 C6             2.8550     1.2217    -2.4135 C.ar    
   7 N7             2.3676     1.8689    -3.4398 N.ar    
   8 C8             1.1612     2.4551    -3.4114 C.ar    
   9 C9             0.3615     2.3895    -2.2438 C.ar    
  10 C10            0.8600     1.6966    -1.1157 C.ar    
  11 C11           -0.8944     3.0038    -2.2244 C.ar    
  12 C12           -1.3444     3.6723    -3.3515 C.ar    
  13 C13           -0.5474     3.7329    -4.5033 C.ar    
  14 C14            0.6764     3.1408    -4.5373 C.ar    
  15 O15           -0.0097     0.8458     2.1269 O.2     
  16 C16           -2.6755     4.3262    -3.3397 C.ar    
  17 C17           -1.1259     2.1805     0.1305 C.ar    
  18 C18           -1.2442     3.5515     0.3268 C.ar    
  19 C19           -2.4917     4.1314     0.4128 C.ar    
  20 C20           -3.6356     3.3417     0.3024 C.ar    
  21 C21           -3.5145     1.9671     0.1052 C.ar    
  22 C22           -2.2645     1.3922     0.0145 C.ar    
  23 C23           -4.9791     3.9633     0.3952 C.ar    
  24 C24           -3.5422     4.1459    -2.2500 C.ar    
  25 N25           -4.7224     4.7106    -2.2126 N.ar    
  26 C26           -5.1612     5.4871    -3.2090 C.ar    
  27 C27           -4.3439     5.7181    -4.3441 C.ar    
  28 C28           -3.0710     5.1253    -4.4027 C.ar    
  29 C29           -5.2956     4.7842     1.4764 C.ar    
  30 C30           -6.4324     6.0847    -3.1510 C.ar    
  31 C31           -6.8577     6.8708    -4.1773 C.ar    
  32 C32           -6.0528     7.0963    -5.2924 C.ar    
  33 C33           -4.8160     6.5353    -5.3854 C.ar    
  34 C34           -6.5455     5.3611     1.5596 C.ar    
  35 C35           -7.4882     5.1246     0.5682 C.ar    
  36 C36           -7.1760     4.3070    -0.5096 C.ar    
  37 C37           -5.9258     3.7323    -0.6016 C.ar    
  38 O38           -8.7190     5.6940     0.6532 O.3     
  39 C39           -9.6402     5.4083    -0.4013 C.3     
  40 C40          -10.9616     6.1318    -0.1340 C.3     
  41 N41          -10.7450     7.5836    -0.1899 N.3     
  42 C42          -12.0278     8.3102    -0.1747 C.3     
  43 C43           -9.9305     8.0423     0.9556 C.3     
  44 C44          -10.4703     9.4568     1.2835 C.3     
  45 C45          -11.9898     9.2800     1.0250 C.3     
  46 C46           -4.7488     1.1108    -0.0146 C.3     
  47 F47           -4.3808    -0.2389    -0.0250 F       
  48 F48           -5.5934     1.3555     1.0736 F       
  49 F49           -5.4180     1.4210    -1.2033 F       
  50 H50            2.3033    -0.2077     1.8944 H       
  51 H51            3.6303    -0.0560    -0.1517 H       
  52 H52            3.8321     0.7679    -2.4884 H       
  53 H53           -1.5092     2.9573    -1.3377 H       
  54 H54           -0.9100     4.2572    -5.3751 H       
  55 H55            1.2771     3.1975    -5.4330 H       
  56 H56           -0.3579     4.1628     0.4122 H       
  57 H57           -2.5831     5.1966     0.5660 H       
  58 H58           -2.1702     0.3278    -0.1424 H       
  59 H59           -3.2279     3.5263    -1.4232 H       
  60 H60           -2.4233     5.2808    -5.2529 H       
  61 H61           -4.5630     4.9681     2.2483 H       
  62 H62           -7.0696     5.9202    -2.2947 H       
  63 H63           -7.8352     7.3272    -4.1269 H       
  64 H64           -6.4151     7.7239    -6.0932 H       
  65 H65           -4.2011     6.7171    -6.2544 H       
  66 H66           -6.7914     5.9973     2.3970 H       
  67 H67           -7.9117     4.1243    -1.2789 H       
  68 H68           -5.6836     3.0964    -1.4403 H       
  69 H69           -9.2244     5.7495    -1.3493 H       
  70 H70           -9.8172     4.3338    -0.4479 H       
  71 H71          -11.6926     5.8441    -0.8896 H       
  72 H72          -11.3326     5.8575     0.8535 H       
  73 H73          -12.1472     8.8714    -1.1015 H       
  74 H74          -12.8514     7.6061    -0.0564 H       
  75 H75          -10.0664     7.3772     1.8083 H       
  76 H76           -8.8780     8.0930     0.6767 H       
  77 H77          -10.2789     9.7160     2.3248 H       
  78 H78          -10.0442    10.2026     0.6124 H       
  79 H79          -12.4499    10.2333     0.7648 H       
  80 H80          -12.4796     8.8387     1.8930 H       
@<TRIPOS>BOND
   1    1    2 am
   2    1   10 1
   3    1   17 1
   4    2    3 1
   5    2   15 2
   6    3    4 2
   7    3   50 1
   8    4    5 1
   9    4   51 1
  10    5    6 ar
  11    5   10 ar
  12    6    7 ar
  13    6   52 1
  14    7    8 ar
  15    8    9 ar
  16    8   14 ar
  17    9   10 ar
  18    9   11 ar
  19   11   12 ar
  20   11   53 1
  21   12   13 ar
  22   12   16 1
  23   13   14 ar
  24   13   54 1
  25   14   55 1
  26   16   24 ar
  27   16   28 ar
  28   17   18 ar
  29   17   22 ar
  30   18   19 ar
  31   18   56 1
  32   19   20 ar
  33   19   57 1
  34   20   21 ar
  35   20   23 1
  36   21   22 ar
  37   21   46 1
  38   22   58 1
  39   23   29 ar
  40   23   37 ar
  41   24   25 ar
  42   24   59 1
  43   25   26 ar
  44   26   27 ar
  45   26   30 ar
  46   27   28 ar
  47   27   33 ar
  48   28   60 1
  49   29   34 ar
  50   29   61 1
  51   30   31 ar
  52   30   62 1
  53   31   32 ar
  54   31   63 1
  55   32   33 ar
  56   32   64 1
  57   33   65 1
  58   34   35 ar
  59   34   66 1
  60   35   36 ar
  61   35   38 1
  62   36   37 ar
  63   36   67 1
  64   37   68 1
  65   38   39 1
  66   39   40 1
  67   39   69 1
  68   39   70 1
  69   40   41 1
  70   40   71 1
  71   40   72 1
  72   41   42 1
  73   41   43 1
  74   42   45 1
  75   42   73 1
  76   42   74 1
  77   43   44 1
  78   43   75 1
  79   43   76 1
  80   44   45 1
  81   44   77 1
  82   44   78 1
  83   45   79 1
  84   45   80 1
  85   46   47 1
  86   46   48 1
  87   46   49 1

#	End of record

