#	Name: ASD04230121
#	Creating user name:	WinNT
#	Creation time:	15. 06. 2019 20:48

#	Modifying user name:	WinNT
#	Modification time:	15. 06. 2019 20:48

#	Program:	/corina/corina34_cracker 3.40 0067  02.08.2006

@<TRIPOS>MOLECULE
ASD04230121
  52   55    0    0    0
SMALL
NO_CHARGES


@<TRIPOS>ATOM
   1 C1             1.5359     4.6862     1.7200 C.ar    
   2 C2             2.5438     5.3840     2.3697 C.ar    
   3 C3             3.8003     4.8590     2.4684 C.ar    
   4 C4             4.0824     3.6080     1.9006 C.ar    
   5 C5             3.0563     2.8818     1.2694 C.ar    
   6 C6             1.7831     3.4396     1.1728 C.ar    
   7 C7             5.3933     3.0678     1.9623 C.2     
   8 C8             5.6627     1.9284     1.2158 C.2     
   9 C9             4.5671     1.3877     0.3906 C.2     
  10 O10            3.2978     1.6422     0.7795 O.3     
  11 C11            6.9878     1.2871     1.2467 C.2     
  12 N12            7.2188     0.1818     0.5109 N.am    
  13 O13            7.8739     1.7548     1.9362 O.2     
  14 C14            8.5059    -0.3623     0.4514 C.ar    
  15 C15            8.6753    -1.7390     0.3692 C.ar    
  16 C16            9.9457    -2.2803     0.3102 C.ar    
  17 C17           11.0532    -1.4566     0.3322 C.ar    
  18 C18           10.8927    -0.0741     0.4145 C.ar    
  19 C19            9.6134     0.4724     0.4687 C.ar    
  20 C20           12.0820     0.8126     0.4387 C.ar    
  21 O21            4.7981     0.7334    -0.6090 O.2     
  22 C22           11.9307     2.1935     0.5208 C.ar    
  23 N23           12.9841     2.9855     0.5431 N.ar    
  24 C24           14.2176     2.5063     0.4889 C.ar    
  25 C25           14.4480     1.1357     0.4053 C.ar    
  26 C26           13.3717     0.2712     0.3852 C.ar    
  27 N27           15.2953     3.3824     0.5155 N.pl3   
  28 C28           16.6582     2.8725     0.3460 C.3     
  29 C29           15.0690     4.8163     0.7130 C.3     
  30 O30            0.7868     2.7609     0.5437 O.3     
  31 C31           -0.4923     3.3950     0.4832 C.3     
  32 H32            0.5487     5.1178     1.6445 H       
  33 H33            2.3326     6.3514     2.8011 H       
  34 H34            4.5762     5.4065     2.9827 H       
  35 H35            6.1575     3.5287     2.5705 H       
  36 H36            6.4924    -0.2364     0.0225 H       
  37 H37            7.8121    -2.3878     0.3517 H       
  38 H38           10.0723    -3.3510     0.2471 H       
  39 H39           12.0443    -1.8832     0.2860 H       
  40 H40            9.4840     1.5427     0.5325 H       
  41 H41           10.9398     2.6207     0.5663 H       
  42 H42           15.4570     0.7530     0.3609 H       
  43 H43           13.5211    -0.7965     0.3212 H       
  44 H44           16.9175     2.8736    -0.7127 H       
  45 H45           17.3548     3.5092     0.8914 H       
  46 H46           16.7163     1.8552     0.7332 H       
  47 H47           14.0006     5.0042     0.8192 H       
  48 H48           15.5872     5.1452     1.6137 H       
  49 H49           15.4509     5.3662    -0.1472 H       
  50 H50           -0.8556     3.5776     1.4945 H       
  51 H51           -0.4033     4.3429    -0.0475 H       
  52 H52           -1.1939     2.7482    -0.0436 H       
@<TRIPOS>BOND
   1    1    2 ar
   2    1    6 ar
   3    1   32 1
   4    2    3 ar
   5    2   33 1
   6    3    4 ar
   7    3   34 1
   8    4    5 ar
   9    4    7 1
  10    5    6 ar
  11    5   10 1
  12    6   30 1
  13    7    8 2
  14    7   35 1
  15    8    9 1
  16    8   11 1
  17    9   10 1
  18    9   21 2
  19   11   12 am
  20   11   13 2
  21   12   14 1
  22   12   36 1
  23   14   15 ar
  24   14   19 ar
  25   15   16 ar
  26   15   37 1
  27   16   17 ar
  28   16   38 1
  29   17   18 ar
  30   17   39 1
  31   18   19 ar
  32   18   20 1
  33   19   40 1
  34   20   22 ar
  35   20   26 ar
  36   22   23 ar
  37   22   41 1
  38   23   24 ar
  39   24   25 ar
  40   24   27 1
  41   25   26 ar
  42   25   42 1
  43   26   43 1
  44   27   28 1
  45   27   29 1
  46   28   44 1
  47   28   45 1
  48   28   46 1
  49   29   47 1
  50   29   48 1
  51   29   49 1
  52   30   31 1
  53   31   50 1
  54   31   51 1
  55   31   52 1

#	End of record

