#	Name: ASD01810719
#	Creating user name:	WinNT
#	Creation time:	15. 06. 2019 19:25

#	Modifying user name:	WinNT
#	Modification time:	15. 06. 2019 19:25

#	Program:	/corina/corina34_cracker 3.40 0067  02.08.2006

@<TRIPOS>MOLECULE
ASD01810719
  44   47    0    0    0
SMALL
NO_CHARGES


@<TRIPOS>ATOM
   1 N1            -0.0153     1.2757     0.0091 N.pl3   
   2 N2             0.0021    -0.0041     0.0020 N.2     
   3 C3             1.0982    -0.7287    -0.0123 C.2     
   4 C4             2.4105    -0.0545    -0.0212 C.2     
   5 C5             2.3845     1.4198    -0.0130 C.ar    
   6 C6             3.5501     2.1806    -0.0195 C.ar    
   7 C7             3.4606     3.5562    -0.0108 C.ar    
   8 C8             2.2197     4.1779     0.0047 C.ar    
   9 C9             1.0579     3.4368     0.0114 C.ar    
  10 C10            1.1237     2.0470     0.0023 C.ar    
  11 C11            1.0175    -2.1997    -0.0190 C.2     
  12 O12            2.0351    -2.8640    -0.0323 O.2     
  13 O13           -0.1849    -2.8088    -0.0104 O.3     
  14 S14            3.8794    -0.9336    -0.0394 S.2     
  15 C15           -1.3140     1.9535     0.0188 C.3     
  16 C16           -2.5273     1.2468    -2.0580 C.ar    
  17 C17           -1.7659     2.1936    -1.3987 C.ar    
  18 C18           -1.4219     3.3678    -2.0542 C.ar    
  19 C19           -1.8569     3.5502    -3.3549 C.ar    
  20 C20           -2.6217     2.5537    -3.9593 C.ar    
  21 N21           -2.9291     1.4449    -3.2973 N.ar    
  22 S22           -4.1773     2.4296    -7.6147 S.3     
  23 C23           -3.2957     3.8527    -7.2702 C.2     
  24 N24           -2.8270     3.8141    -6.0717 N.2     
  25 C25           -3.0959     2.7338    -5.3518 C.2     
  26 C26           -3.8396     1.8129    -5.9994 C.2     
  27 C27           -0.1884    -4.2607    -0.0177 C.3     
  28 C28           -1.6321    -4.7673    -0.0062 C.3     
  29 H29            4.5159     1.6975    -0.0309 H       
  30 H30            4.3606     4.1532    -0.0158 H       
  31 H31            2.1640     5.2565     0.0121 H       
  32 H32            0.0989     3.9334     0.0238 H       
  33 H33           -2.0455     1.3298     0.5326 H       
  34 H34           -1.2220     2.9078     0.5374 H       
  35 H35           -2.7927     0.3303    -1.5520 H       
  36 H36           -0.8282     4.1224    -1.5597 H       
  37 H37           -1.6077     4.4521    -3.8943 H       
  38 H38           -3.1519     4.6701    -7.9612 H       
  39 H39           -4.1694     0.8658    -5.5986 H       
  40 H40            0.3158    -4.6208    -0.9145 H       
  41 H41            0.3332    -4.6298     0.8654 H       
  42 H42           -2.1363    -4.4072     0.8906 H       
  43 H43           -2.1537    -4.3982    -0.8893 H       
  44 H44           -1.6348    -5.8573    -0.0117 H       
@<TRIPOS>BOND
   1    1    2 1
   2    1   10 1
   3    1   15 1
   4    2    3 2
   5    3    4 1
   6    3   11 1
   7    4    5 1
   8    4   14 2
   9    5    6 ar
  10    5   10 ar
  11    6    7 ar
  12    6   29 1
  13    7    8 ar
  14    7   30 1
  15    8    9 ar
  16    8   31 1
  17    9   10 ar
  18    9   32 1
  19   11   12 2
  20   11   13 1
  21   13   27 1
  22   15   17 1
  23   15   33 1
  24   15   34 1
  25   16   17 ar
  26   16   21 ar
  27   16   35 1
  28   17   18 ar
  29   18   19 ar
  30   18   36 1
  31   19   20 ar
  32   19   37 1
  33   20   21 ar
  34   20   25 1
  35   22   23 1
  36   22   26 1
  37   23   24 2
  38   23   38 1
  39   24   25 1
  40   25   26 2
  41   26   39 1
  42   27   28 1
  43   27   40 1
  44   27   41 1
  45   28   42 1
  46   28   43 1
  47   28   44 1

#	End of record

