#	Name: ASD01911441
#	Creating user name:	WinNT
#	Creation time:	15. 06. 2019 19:57

#	Modifying user name:	WinNT
#	Modification time:	15. 06. 2019 19:57

#	Program:	/corina/corina34_cracker 3.40 0067  02.08.2006

@<TRIPOS>MOLECULE
ASD01911441
  45   47    0    0    0
SMALL
NO_CHARGES


@<TRIPOS>ATOM
   1 N1            -0.0168     1.3886     0.0097 N.am    
   2 C2             0.0021    -0.0041     0.0020 C.ar    
   3 C3             1.2190    -0.6741     0.0924 C.ar    
   4 C4             1.2316    -2.0540     0.0848 C.ar    
   5 C5             0.0066    -2.7312    -0.0146 C.ar    
   6 C6            -1.1723    -1.9882    -0.1016 C.ar    
   7 N7            -1.1383    -0.6716    -0.0856 N.ar    
   8 C8            -0.0338    -4.1626    -0.0271 C.1     
   9 C9            -0.0668    -5.3361    -0.0373 C.1     
  10 C10           -0.1072    -6.7674    -0.0499 C.ar    
  11 C11           -1.3311    -7.4342    -0.1491 C.ar    
  12 C12            1.0325    -8.8823     0.0189 C.ar    
  13 C13            1.0777    -7.5036     0.0314 C.ar    
  14 C14           -1.3619    -8.8150    -0.1605 C.ar    
  15 C15           -0.1821    -9.5377    -0.0737 C.ar    
  16 C16            1.2569     2.1034     0.0014 C.3     
  17 C17           -1.2004     2.0111     0.0188 C.2     
  18 O18           -1.3254     3.3463     0.0716 O.3     
  19 C19           -0.1491     4.1371    -0.2541 C.3     
  20 C20            1.0520     3.5400     0.4903 C.3     
  21 C21            0.1065     4.0860    -1.7618 C.3     
  22 C22           -0.3633     5.5869     0.1855 C.3     
  23 O23           -2.2099     1.3362    -0.0230 O.2     
  24 O24            0.7933     3.5350     1.8956 O.3     
  25 C25            1.9656     3.6617     2.7029 C.3     
  26 F26           -2.5438    -9.4625    -0.2558 F       
  27 H27            2.1430    -0.1200     0.1673 H       
  28 H28            2.1614    -2.5992     0.1533 H       
  29 H29           -2.1214    -2.4979    -0.1784 H       
  30 H30           -2.2505    -6.8714    -0.2163 H       
  31 H31            1.9481    -9.4516     0.0813 H       
  32 H32            2.0272    -6.9941     0.1034 H       
  33 H33           -0.2111   -10.6172    -0.0830 H       
  34 H34            1.9619     1.5945     0.6586 H       
  35 H35            1.6563     2.1196    -1.0127 H       
  36 H36            1.9436     4.1316     0.2827 H       
  37 H37           -0.7572     4.4890    -2.2906 H       
  38 H38            0.9886     4.6798    -2.0011 H       
  39 H39            0.2702     3.0527    -2.0677 H       
  40 H40           -0.5331     5.6189     1.2617 H       
  41 H41            0.5205     6.1755    -0.0606 H       
  42 H42           -1.2299     5.9991    -0.3314 H       
  43 H43            2.4662     4.6019     2.4714 H       
  44 H44            1.6846     3.6494     3.7560 H       
  45 H45            2.6401     2.8306     2.4970 H       
@<TRIPOS>BOND
   1    1    2 1
   2    1   16 1
   3    1   17 am
   4    2    3 ar
   5    2    7 ar
   6    3    4 ar
   7    3   27 1
   8    4    5 ar
   9    4   28 1
  10    5    6 ar
  11    5    8 1
  12    6    7 ar
  13    6   29 1
  14    8    9 3
  15    9   10 1
  16   10   11 ar
  17   10   13 ar
  18   11   14 ar
  19   11   30 1
  20   12   13 ar
  21   12   15 ar
  22   12   31 1
  23   13   32 1
  24   14   15 ar
  25   14   26 1
  26   15   33 1
  27   16   20 1
  28   16   34 1
  29   16   35 1
  30   17   18 1
  31   17   23 2
  32   18   19 1
  33   19   20 1
  34   19   21 1
  35   19   22 1
  36   20   24 1
  37   20   36 1
  38   21   37 1
  39   21   38 1
  40   21   39 1
  41   22   40 1
  42   22   41 1
  43   22   42 1
  44   24   25 1
  45   25   43 1
  46   25   44 1
  47   25   45 1

#	End of record

