#	Name: ASD04910179
#	Creating user name:	WinNT
#	Creation time:	15. 06. 2019 20:55

#	Modifying user name:	WinNT
#	Modification time:	15. 06. 2019 20:55

#	Program:	/corina/corina34_cracker 3.40 0067  02.08.2006

@<TRIPOS>MOLECULE
ASD04910179
  34   34    0    0    0
SMALL
NO_CHARGES


@<TRIPOS>ATOM
   1 C1             0.1470     1.4663     0.0270 C.2     
   2 C2             0.0561    -0.0055     0.0154 C.ar    
   3 C3            -1.1948    -0.6417     0.0158 C.ar    
   4 C4            -1.2311    -2.0103     0.0043 C.ar    
   5 C5            -0.0361    -2.7257    -0.0072 C.ar    
   6 N6             1.1326    -2.1006    -0.0073 N.ar    
   7 C7             1.2133    -0.7865    -0.0019 C.ar    
   8 O8            -0.8658     2.1375     0.0369 O.2     
   9 O9             1.3532     2.0669     0.0322 O.3     
  10 N10           -0.0697    -4.1146    -0.0184 N.am    
  11 C11            1.0755    -4.8154    -0.1353 C.2     
  12 O12            2.1260    -4.2354    -0.3255 O.2     
  13 O13            1.0555    -6.1583    -0.0412 O.3     
  14 C14            2.3262    -6.8476    -0.1769 C.3     
  15 C15            3.2834    -6.3730     0.9184 C.3     
  16 C16            2.1053    -8.3556    -0.0428 C.3     
  17 C17            2.9291    -6.5405    -1.5492 C.3     
  18 C18            1.3667     3.5188     0.0435 C.3     
  19 H19           -2.1078    -0.0649     0.0252 H       
  20 H20           -2.1777    -2.5304     0.0046 H       
  21 H21            2.1821    -0.3091    -0.0068 H       
  22 H22           -0.9174    -4.5798     0.0579 H       
  23 H23            2.8539    -6.5918     1.8960 H       
  24 H24            4.2373    -6.8905     0.8165 H       
  25 H25            3.4408    -5.2987     0.8228 H       
  26 H26            1.4234    -8.6937    -0.8230 H       
  27 H27            3.0592    -8.8731    -0.1446 H       
  28 H28            1.6758    -8.5744     0.9349 H       
  29 H29            3.0865    -5.4662    -1.6447 H       
  30 H30            3.8830    -7.0580    -1.6510 H       
  31 H31            2.2472    -6.8786    -2.3295 H       
  32 H32            0.8566     3.8938    -0.8437 H       
  33 H33            0.8559     3.8799     0.9362 H       
  34 H34            2.3977     3.8725     0.0467 H       
@<TRIPOS>BOND
   1    1    2 1
   2    1    8 2
   3    1    9 1
   4    2    3 ar
   5    2    7 ar
   6    3    4 ar
   7    3   19 1
   8    4    5 ar
   9    4   20 1
  10    5    6 ar
  11    5   10 1
  12    6    7 ar
  13    7   21 1
  14    9   18 1
  15   10   11 am
  16   10   22 1
  17   11   12 2
  18   11   13 1
  19   13   14 1
  20   14   15 1
  21   14   17 1
  22   14   16 1
  23   15   23 1
  24   15   24 1
  25   15   25 1
  26   16   26 1
  27   16   27 1
  28   16   28 1
  29   17   29 1
  30   17   30 1
  31   17   31 1
  32   18   32 1
  33   18   33 1
  34   18   34 1

#	End of record

