#	Name: ASD01208026
#	Creating user name:	WinNT
#	Creation time:	15. 06. 2019 19:09

#	Modifying user name:	WinNT
#	Modification time:	15. 06. 2019 19:09

#	Program:	/corina/corina34_cracker 3.40 0067  02.08.2006

@<TRIPOS>MOLECULE
ASD01208026
  56   59    0    0    0
SMALL
NO_CHARGES


@<TRIPOS>ATOM
   1 C1            -0.0842     1.4339     0.0277 C.ar    
   2 C2             0.0185     0.0511    -0.0130 C.ar    
   3 C3            -1.1246    -0.7351     0.0271 C.ar    
   4 C4            -2.3732    -0.1413     0.1080 C.ar    
   5 C5            -2.4809     1.2494     0.1491 C.ar    
   6 C6            -1.3289     2.0357     0.1139 C.ar    
   7 C7            -3.8114     1.8875     0.2355 C.2     
   8 C8            -4.0549     3.2412     0.2823 C.2     
   9 N9            -5.0114     1.2346     0.2765 N.pl3   
  10 C10           -6.0160     2.1691     0.3553 C.2     
  11 C11           -5.4375     3.4190     0.3599 C.2     
  12 O12            1.0382     2.1991    -0.0114 O.3     
  13 C13            0.8562     3.6143    -0.0905 C.3     
  14 C14            2.0902     4.2522    -0.7317 C.3     
  15 O15            3.2213     4.0636     0.1211 O.3     
  16 C16            0.6610     4.1828     1.3164 C.3     
  17 O17           -1.0185    -2.0893    -0.0135 O.3     
  18 C18           -1.4880    -2.7332    -1.1142 C.ar    
  19 C19           -1.9391    -2.0051    -2.2058 C.ar    
  20 C20           -1.5117    -4.1201    -1.1506 C.ar    
  21 C21           -1.9890    -4.7723    -2.2709 C.ar    
  22 C22           -2.4429    -4.0443    -3.3553 C.ar    
  23 C23           -2.4154    -2.6622    -3.3236 C.ar    
  24 S24           -3.0505    -4.8793    -4.7830 S.o2    
  25 C25           -4.8248    -5.0847    -4.4663 C.3     
  26 O26           -2.8367    -3.9593    -5.8446 O.2     
  27 O27           -2.3910    -6.1378    -4.7601 O.2     
  28 C28           -7.4580     1.8842     0.4188 C.2     
  29 N29           -8.3853     2.7755     0.4924 N.2     
  30 C30           -9.7709     2.3665     0.5494 C.3     
  31 C31           -9.9027     0.8361     0.5094 C.3     
  32 S32           -8.1749     0.2688     0.3979 S.3     
  33 H33            0.9907    -0.4150    -0.0764 H       
  34 H34           -3.2623    -0.7537     0.1388 H       
  35 H35           -1.4079     3.1123     0.1455 H       
  36 H36           -3.3111     4.0241     0.2632 H       
  37 H37           -5.1335     0.2726     0.2535 H       
  38 H38           -5.9581     4.3637     0.4139 H       
  39 H39           -0.0228     3.8342    -0.6964 H       
  40 H40            2.2811     3.7839    -1.6973 H       
  41 H41            1.9158     5.3188    -0.8733 H       
  42 H42            4.0412     4.4436    -0.2233 H       
  43 H43            0.5221     5.2622     1.2561 H       
  44 H44           -0.2182     3.7283     1.7732 H       
  45 H45            1.5399     3.9629     1.9224 H       
  46 H46           -1.9182    -0.9256    -2.1814 H       
  47 H47           -1.1570    -4.6892    -0.3040 H       
  48 H48           -2.0073    -5.8517    -2.3000 H       
  49 H49           -2.7709    -2.0959    -4.1717 H       
  50 H50           -5.2871    -4.1057    -4.3399 H       
  51 H51           -5.2872    -5.5988    -5.3089 H       
  52 H52           -4.9664    -5.6730    -3.5597 H       
  53 H53          -10.2157     2.7393     1.4720 H       
  54 H54          -10.3045     2.7932    -0.2999 H       
  55 H55          -10.3744     0.4670     1.4200 H       
  56 H56          -10.4641     0.5215    -0.3703 H       
@<TRIPOS>BOND
   1    1    2 ar
   2    1   12 1
   3    1    6 ar
   4    2    3 ar
   5    2   33 1
   6    3    4 ar
   7    3   17 1
   8    4    5 ar
   9    4   34 1
  10    5    6 ar
  11    5    7 1
  12    6   35 1
  13    7    8 2
  14    7    9 1
  15    8   11 1
  16    8   36 1
  17    9   10 1
  18    9   37 1
  19   10   11 2
  20   10   28 1
  21   11   38 1
  22   12   13 1
  23   13   14 1
  24   13   16 1
  25   13   39 1
  26   14   15 1
  27   14   40 1
  28   14   41 1
  29   15   42 1
  30   16   43 1
  31   16   44 1
  32   16   45 1
  33   17   18 1
  34   18   19 ar
  35   18   20 ar
  36   19   23 ar
  37   19   46 1
  38   20   21 ar
  39   20   47 1
  40   21   22 ar
  41   21   48 1
  42   22   23 ar
  43   22   24 1
  44   23   49 1
  45   24   25 1
  46   24   26 2
  47   24   27 2
  48   25   50 1
  49   25   51 1
  50   25   52 1
  51   28   29 2
  52   28   32 1
  53   29   30 1
  54   30   31 1
  55   30   53 1
  56   30   54 1
  57   31   32 1
  58   31   55 1
  59   31   56 1

#	End of record

