#	Name: ASD01884320
#	Creating user name:	WinNT
#	Creation time:	15. 06. 2019 19:48

#	Modifying user name:	WinNT
#	Modification time:	15. 06. 2019 19:48

#	Program:	/corina/corina34_cracker 3.40 0067  02.08.2006

@<TRIPOS>MOLECULE
ASD01884320
  56   59    0    0    0
SMALL
NO_CHARGES


@<TRIPOS>ATOM
   1 C1            -0.0168     1.3884     0.0097 C.2     
   2 C2             0.0021    -0.0041     0.0020 C.2     
   3 C3            -1.2095    -0.6965     0.0104 C.2     
   4 C4            -2.3831    -0.0157     0.0252 C.2     
   5 N5            -2.4093     1.3392     0.0327 N.am    
   6 C6            -1.2693     2.0558     0.0312 C.2     
   7 O7            -1.3129     3.2741     0.0380 O.2     
   8 C8            -3.6983     2.0352     0.0483 C.3     
   9 C9            -4.1273     2.2662     1.4744 C.ar    
  10 C10            1.2059     2.1337     0.0020 C.1     
  11 N11            2.1759     2.7249    -0.0041 N.1     
  12 C12            1.3105    -0.7515    -0.0155 C.3     
  13 N13            1.6901    -1.1066     1.3585 N.3     
  14 C14            2.8290    -2.0352     1.3670 C.3     
  15 C15            3.2431    -2.3172     2.8131 C.3     
  16 N16            2.1012    -2.8822     3.5456 N.3     
  17 C17            0.9623    -1.9536     3.5371 C.3     
  18 C18            0.5482    -1.6716     2.0910 C.3     
  19 C19           -3.7549     3.4259     2.1284 C.ar    
  20 C20           -4.1480     3.6390     3.4360 C.ar    
  21 C21           -4.9152     2.6906     4.0911 C.ar    
  22 C22           -5.2876     1.5296     3.4350 C.ar    
  23 C23           -4.8977     1.3210     2.1257 C.ar    
  24 F24           -5.2998     2.8977     5.3695 F       
  25 C25            2.4808    -3.2373     4.9196 C.3     
  26 C26            1.2440    -3.5790     5.7100 C.ar    
  27 C27            0.7858    -4.8825     5.7457 C.ar    
  28 C28           -0.3497    -5.1972     6.4718 C.ar    
  29 C29           -1.0265    -4.2038     7.1627 C.ar    
  30 C30           -0.5651    -2.8994     7.1249 C.ar    
  31 C31            0.5722    -2.5893     6.4032 C.ar    
  32 F32           -0.7985    -6.4710     6.5068 F       
  33 F33           -2.1354    -4.5085     7.8717 F       
  34 H34           -1.2130    -1.7765     0.0046 H       
  35 H35           -3.3137    -0.5638     0.0308 H       
  36 H36           -3.5999     2.9937    -0.4613 H       
  37 H37           -4.4456     1.4275    -0.4619 H       
  38 H38            1.2023    -1.6595    -0.6087 H       
  39 H39            2.0835    -0.1207    -0.4544 H       
  40 H40            2.5411    -2.9683     0.8826 H       
  41 H41            3.6659    -1.5892     0.8295 H       
  42 H42            4.0692    -3.0283     2.8228 H       
  43 H43            3.5569    -1.3883     3.2893 H       
  44 H44            0.1254    -2.3996     4.0746 H       
  45 H45            1.2502    -1.0205     4.0215 H       
  46 H46           -0.2779    -0.9605     2.0813 H       
  47 H47            0.2344    -2.6005     1.6148 H       
  48 H48           -3.1562     4.1653     1.6174 H       
  49 H49           -3.8567     4.5449     3.9469 H       
  50 H50           -5.8860     0.7891     3.9450 H       
  51 H51           -5.1880     0.4154     1.6137 H       
  52 H52            3.1494    -4.0979     4.9010 H       
  53 H53            2.9883    -2.3929     5.3861 H       
  54 H54            1.3137    -5.6554     5.2068 H       
  55 H55           -1.0914    -2.1246     7.6627 H       
  56 H56            0.9317    -1.5713     6.3741 H       
@<TRIPOS>BOND
   1    1    2 2
   2    1   10 1
   3    1    6 1
   4    2    3 1
   5    2   12 1
   6    3    4 2
   7    3   34 1
   8    4    5 1
   9    4   35 1
  10    5    6 am
  11    5    8 1
  12    6    7 2
  13    8    9 1
  14    8   36 1
  15    8   37 1
  16    9   19 ar
  17    9   23 ar
  18   10   11 3
  19   12   13 1
  20   12   38 1
  21   12   39 1
  22   13   14 1
  23   13   18 1
  24   14   15 1
  25   14   40 1
  26   14   41 1
  27   15   16 1
  28   15   42 1
  29   15   43 1
  30   16   17 1
  31   16   25 1
  32   17   18 1
  33   17   44 1
  34   17   45 1
  35   18   46 1
  36   18   47 1
  37   19   20 ar
  38   19   48 1
  39   20   21 ar
  40   20   49 1
  41   21   22 ar
  42   21   24 1
  43   22   23 ar
  44   22   50 1
  45   23   51 1
  46   25   26 1
  47   25   52 1
  48   25   53 1
  49   26   27 ar
  50   26   31 ar
  51   27   28 ar
  52   27   54 1
  53   28   29 ar
  54   28   32 1
  55   29   30 ar
  56   29   33 1
  57   30   31 ar
  58   30   55 1
  59   31   56 1

#	End of record

