#	Name: ASD01883502
#	Creating user name:	WinNT
#	Creation time:	15. 06. 2019 19:46

#	Modifying user name:	WinNT
#	Modification time:	15. 06. 2019 19:46

#	Program:	/corina/corina34_cracker 3.40 0067  02.08.2006

@<TRIPOS>MOLECULE
ASD01883502
  50   52    0    0    0
SMALL
NO_CHARGES


@<TRIPOS>ATOM
   1 N1            -0.0162     1.3424     0.0094 N.am    
   2 C2             0.0021    -0.0041     0.0020 C.2     
   3 C3            -1.2200    -0.7260     0.0103 C.2     
   4 C4            -2.4186    -0.0172     0.0260 C.2     
   5 C5            -2.3789     1.3778     0.0331 C.2     
   6 C6            -1.1865     2.0253     0.0299 C.2     
   7 O7             1.0648    -0.6011    -0.0121 O.2     
   8 C8            -1.2204    -2.1580     0.0021 C.1     
   9 N9            -1.2207    -3.2939    -0.0043 N.1     
  10 C10            1.2492     2.0805     0.0013 C.3     
  11 C11            1.6760     2.3452    -1.4439 C.3     
  12 C12            2.9975     3.1162    -1.4524 C.3     
  13 C13            4.1025     2.2406    -0.8580 C.3     
  14 C14            3.3610     3.4895    -2.8910 C.3     
  15 C15           -3.7381    -0.7452     0.0347 C.3     
  16 C16           -4.5488    -0.3818     1.2952 C.3     
  17 N17           -5.7647     0.2413     0.7465 N.pl3   
  18 N18           -5.6774     0.2423    -0.6442 N.2     
  19 C19           -4.6125    -0.2733    -1.1051 C.2     
  20 C20           -6.8817     0.7715     1.5323 C.3     
  21 C21           -6.6319     2.2247     1.8433 C.ar    
  22 C22           -7.0793     3.2039     0.9762 C.ar    
  23 C23           -6.8501     4.5370     1.2614 C.ar    
  24 C24           -6.1739     4.8909     2.4140 C.ar    
  25 C25           -5.7273     3.9117     3.2815 C.ar    
  26 C26           -5.9603     2.5788     2.9985 C.ar    
  27 H27           -3.2991     1.9430     0.0453 H       
  28 H28           -1.1699     3.1052     0.0358 H       
  29 H29            1.1196     3.0296     0.5215 H       
  30 H30            2.0163     1.4921     0.5047 H       
  31 H31            1.8056     1.3962    -1.9641 H       
  32 H32            0.9088     2.9337    -1.9473 H       
  33 H33            2.8929     4.0232    -0.8571 H       
  34 H34            4.2072     1.3336    -1.4534 H       
  35 H35            5.0440     2.7899    -0.8640 H       
  36 H36            3.8436     1.9747     0.1669 H       
  37 H37            2.5738     4.1132    -3.3144 H       
  38 H38            4.3025     4.0387    -2.8970 H       
  39 H39            3.4656     2.5824    -3.4863 H       
  40 H40           -3.5802    -1.8222    -0.0216 H       
  41 H41           -4.7986    -1.2778     1.8634 H       
  42 H42           -3.9994     0.3270     1.9148 H       
  43 H43           -4.3679    -0.3611    -2.1533 H       
  44 H44           -7.8053     0.6756     0.9615 H       
  45 H45           -6.9697     0.2107     2.4628 H       
  46 H46           -7.6076     2.9275     0.0757 H       
  47 H47           -7.1991     5.3020     0.5836 H       
  48 H48           -5.9943     5.9323     2.6364 H       
  49 H49           -5.1987     4.1882     4.1818 H       
  50 H50           -5.6114     1.8139     3.6763 H       
@<TRIPOS>BOND
   1    1    2 am
   2    1   10 1
   3    1    6 1
   4    2    3 1
   5    2    7 2
   6    3    4 2
   7    3    8 1
   8    4    5 1
   9    4   15 1
  10    5    6 2
  11    5   27 1
  12    6   28 1
  13    8    9 3
  14   10   11 1
  15   10   29 1
  16   10   30 1
  17   11   12 1
  18   11   31 1
  19   11   32 1
  20   12   13 1
  21   12   14 1
  22   12   33 1
  23   13   34 1
  24   13   35 1
  25   13   36 1
  26   14   37 1
  27   14   38 1
  28   14   39 1
  29   15   16 1
  30   15   19 1
  31   15   40 1
  32   16   17 1
  33   16   41 1
  34   16   42 1
  35   17   18 1
  36   17   20 1
  37   18   19 2
  38   19   43 1
  39   20   21 1
  40   20   44 1
  41   20   45 1
  42   21   22 ar
  43   21   26 ar
  44   22   23 ar
  45   22   46 1
  46   23   24 ar
  47   23   47 1
  48   24   25 ar
  49   24   48 1
  50   25   26 ar
  51   25   49 1
  52   26   50 1

#	End of record

