#	Name: ASD01810332
#	Creating user name:	WinNT
#	Creation time:	15. 06. 2019 19:24

#	Modifying user name:	WinNT
#	Modification time:	15. 06. 2019 19:24

#	Program:	/corina/corina34_cracker 3.40 0067  02.08.2006

@<TRIPOS>MOLECULE
ASD01810332
  39   42    0    0    0
SMALL
NO_CHARGES


@<TRIPOS>ATOM
   1 C1            -0.1388     1.0823     0.5262 C.ar    
   2 C2            -0.1568    -0.2817     0.3001 C.ar    
   3 C3            -1.3533    -0.9242     0.0270 C.ar    
   4 C4            -2.5341    -0.2050    -0.0211 C.ar    
   5 C5            -2.5295     1.1709     0.2369 C.ar    
   6 C6            -1.3146     1.8085     0.5022 C.ar    
   7 N7            -3.7264    -0.8584    -0.3759 N.pl3   
   8 C8            -4.4046    -0.4349    -1.5201 C.ar    
   9 C9            -4.8614     0.8841    -1.6182 C.ar    
  10 C10           -4.7023     1.8148    -0.4902 C.2     
  11 N11           -3.6799     1.8967     0.2849 N.2     
  12 N12           -5.7448     2.6783    -0.2416 N.pl3   
  13 C13           -7.0149     2.5589    -0.9736 C.3     
  14 C14           -8.1613     2.5263     0.0428 C.3     
  15 N15           -8.0613     3.6954     0.9266 N.3     
  16 C16           -6.8198     3.6657     1.7111 C.3     
  17 C17           -5.6205     3.7411     0.7675 C.3     
  18 C18           -4.6197    -1.3203    -2.5654 C.ar    
  19 C19           -5.2596    -0.8921    -3.7140 C.ar    
  20 C20           -5.6857     0.4196    -3.8278 C.ar    
  21 C21           -5.4914     1.3081    -2.7896 C.ar    
  22 Cl22           1.3663     1.8851     0.8486 Cl      
  23 H23            0.7630    -0.8466     0.3360 H       
  24 H24           -1.3643    -1.9897    -0.1492 H       
  25 H25           -1.2933     2.8734     0.6805 H       
  26 H26           -4.0710    -1.5878     0.1628 H       
  27 H27           -7.1375     3.4155    -1.6364 H       
  28 H28           -7.0163     1.6380    -1.5567 H       
  29 H29           -9.1152     2.5491    -0.4841 H       
  30 H30           -8.0951     1.6147     0.6366 H       
  31 H31           -8.1365     4.5534     0.4010 H       
  32 H32           -6.8008     4.5148     2.3942 H       
  33 H33           -6.7722     2.7382     2.2818 H       
  34 H34           -4.6995     3.6042     1.3342 H       
  35 H35           -5.6068     4.7107     0.2697 H       
  36 H36           -4.2872    -2.3445    -2.4826 H       
  37 H37           -5.4272    -1.5842    -4.5260 H       
  38 H38           -6.1728     0.7497    -4.7334 H       
  39 H39           -5.8258     2.3307    -2.8837 H       
@<TRIPOS>BOND
   1    1    2 ar
   2    1   22 1
   3    1    6 ar
   4    2    3 ar
   5    2   23 1
   6    3    4 ar
   7    3   24 1
   8    4    5 ar
   9    4    7 1
  10    5    6 ar
  11    5   11 1
  12    6   25 1
  13    7    8 1
  14    7   26 1
  15    8    9 ar
  16    8   18 ar
  17    9   10 1
  18    9   21 ar
  19   10   11 2
  20   10   12 1
  21   12   13 1
  22   12   17 1
  23   13   14 1
  24   13   27 1
  25   13   28 1
  26   14   15 1
  27   14   29 1
  28   14   30 1
  29   15   16 1
  30   15   31 1
  31   16   17 1
  32   16   32 1
  33   16   33 1
  34   17   34 1
  35   17   35 1
  36   18   19 ar
  37   18   36 1
  38   19   20 ar
  39   19   37 1
  40   20   21 ar
  41   20   38 1
  42   21   39 1

#	End of record

