#	Name: ASD01810676
#	Creating user name:	WinNT
#	Creation time:	15. 06. 2019 19:25

#	Modifying user name:	WinNT
#	Modification time:	15. 06. 2019 19:25

#	Program:	/corina/corina34_cracker 3.40 0067  02.08.2006

@<TRIPOS>MOLECULE
ASD01810676
  63   67    0    0    0
SMALL
NO_CHARGES


@<TRIPOS>ATOM
   1 C1            -0.1774     1.9883     0.5188 C.ar    
   2 C2             0.0704     0.6144     0.5331 C.ar    
   3 C3            -0.9730    -0.2801     0.3970 C.ar    
   4 C4            -2.2669     0.1769     0.2460 C.ar    
   5 C5            -2.5286     1.5490     0.2300 C.ar    
   6 C6            -1.4812     2.4564     0.3725 C.ar    
   7 C7            -3.9149     2.0370     0.0672 C.2     
   8 N8            -4.4476     2.8708     0.9823 N.am    
   9 O9            -4.5740     1.6862    -0.8919 O.2     
  10 C10           -5.8498     3.2974     0.8799 C.3     
  11 C11           -3.6389     3.3656     2.1047 C.3     
  12 C12           -4.3740     3.0614     3.4139 C.3     
  13 C13           -5.7859     3.6483     3.3497 C.3     
  14 C14           -6.5556     2.9941     2.2053 C.3     
  15 C15           -6.5005     3.3805     4.6492 C.ar    
  16 C16           -6.9573     4.4387     5.4147 C.ar    
  17 C17           -7.6126     4.2008     6.6050 C.ar    
  18 C18           -7.8144     2.8883     7.0369 C.ar    
  19 C19           -7.3508     1.8252     6.2594 C.ar    
  20 C20           -6.7017     2.0774     5.0686 C.ar    
  21 C21            0.9416     2.9449     0.6647 C.2     
  22 N22            2.1847     2.6171     0.9159 N.2     
  23 C23            2.9446     3.7380     0.9843 C.ar    
  24 C24            2.0906     4.8339     0.7556 C.ar    
  25 N25            0.8341     4.3052     0.5515 N.pl3   
  26 C26            4.3016     3.9619     1.2206 C.ar    
  27 C27            4.7904     5.2642     1.2267 C.ar    
  28 C28            3.9256     6.3429     0.9976 C.ar    
  29 C29            2.5980     6.1284     0.7661 C.ar    
  30 C30            1.4797     0.1063     0.6969 C.3     
  31 C31           -3.3992    -0.8064     0.0977 C.3     
  32 C32           -8.4934     2.6339     8.2717 C.1     
  33 N33           -9.0321     2.4320     9.2513 N.1     
  34 C34            6.2250     5.5109     1.4759 C.2     
  35 O35            6.9768     4.5766     1.6753 O.2     
  36 N36            6.7007     6.7719     1.4822 N.am    
  37 H37           -0.7758    -1.3419     0.4084 H       
  38 H38           -1.6782     3.5182     0.3612 H       
  39 H39           -5.8924     4.3680     0.6798 H       
  40 H40           -6.3393     2.7530     0.0723 H       
  41 H41           -2.6700     2.8662     2.1051 H       
  42 H42           -3.4975     4.4419     2.0067 H       
  43 H43           -4.4346     1.9823     3.5548 H       
  44 H44           -3.8320     3.5078     4.2476 H       
  45 H45           -5.7249     4.7239     3.1841 H       
  46 H46           -7.5690     3.3941     2.1729 H       
  47 H47           -6.5943     1.9162     2.3623 H       
  48 H48           -6.8002     5.4533     5.0796 H       
  49 H49           -7.9683     5.0277     7.2017 H       
  50 H50           -7.5033     0.8077     6.5878 H       
  51 H51           -6.3426     1.2561     4.4662 H       
  52 H52            0.0231     4.8046     0.3678 H       
  53 H53            4.9674     3.1301     1.3978 H       
  54 H54            4.3126     7.3512     1.0042 H       
  55 H55            1.9396     6.9664     0.5909 H       
  56 H56            1.7331     0.0730     1.7565 H       
  57 H57            1.5564    -0.8951     0.2733 H       
  58 H58            2.1690     0.7735     0.1793 H       
  59 H59           -3.7387    -1.1211     1.0845 H       
  60 H60           -4.2234    -0.3336    -0.4364 H       
  61 H61           -3.0544    -1.6757    -0.4623 H       
  62 H62            6.1009     7.5174     1.3232 H       
  63 H63            7.6430     6.9340     1.6459 H       
@<TRIPOS>BOND
   1    1    2 ar
   2    1   21 1
   3    1    6 ar
   4    2    3 ar
   5    2   30 1
   6    3    4 ar
   7    3   37 1
   8    4    5 ar
   9    4   31 1
  10    5    6 ar
  11    5    7 1
  12    6   38 1
  13    7    8 am
  14    7    9 2
  15    8   10 1
  16    8   11 1
  17   10   14 1
  18   10   39 1
  19   10   40 1
  20   11   12 1
  21   11   41 1
  22   11   42 1
  23   12   13 1
  24   12   43 1
  25   12   44 1
  26   13   14 1
  27   13   15 1
  28   13   45 1
  29   14   46 1
  30   14   47 1
  31   15   16 ar
  32   15   20 ar
  33   16   17 ar
  34   16   48 1
  35   17   18 ar
  36   17   49 1
  37   18   19 ar
  38   18   32 1
  39   19   20 ar
  40   19   50 1
  41   20   51 1
  42   21   22 2
  43   21   25 1
  44   22   23 1
  45   23   24 ar
  46   23   26 ar
  47   24   25 1
  48   24   29 ar
  49   25   52 1
  50   26   27 ar
  51   26   53 1
  52   27   28 ar
  53   27   34 1
  54   28   29 ar
  55   28   54 1
  56   29   55 1
  57   30   56 1
  58   30   57 1
  59   30   58 1
  60   31   59 1
  61   31   60 1
  62   31   61 1
  63   32   33 3
  64   34   35 2
  65   34   36 am
  66   36   62 1
  67   36   63 1

#	End of record

