#	Name: ASD05730092
#	Creating user name:	WinNT
#	Creation time:	15. 06. 2019 21:02

#	Modifying user name:	WinNT
#	Modification time:	15. 06. 2019 21:02

#	Program:	/corina/corina34_cracker 3.40 0067  02.08.2006

@<TRIPOS>MOLECULE
ASD05730092
  20   21    0    0    0
SMALL
NO_CHARGES


@<TRIPOS>ATOM
   1 C1            -0.0170     1.4002     0.0097 C.ar    
   2 C2             0.0021    -0.0041     0.0020 C.ar    
   3 C3             1.1940    -0.6615    -0.0128 C.ar    
   4 C4             2.3990     0.0385    -0.0201 C.ar    
   5 C5             2.4184     1.3997    -0.0125 C.ar    
   6 C6             1.2080     2.1118     0.0019 C.ar    
   7 C7             1.1884     3.5212     0.0090 C.ar    
   8 C8            -0.0076     4.1804     0.0235 C.ar    
   9 C9            -1.2115     3.4810     0.0317 C.ar    
  10 C10           -1.2315     2.1154     0.0193 C.ar    
  11 O11           -2.4164     1.4495     0.0214 O.3     
  12 O12            2.3539     4.2206     0.0020 O.3     
  13 H13           -0.9241    -0.5595     0.0082 H       
  14 H14            1.2060    -1.7414    -0.0188 H       
  15 H15            3.3311    -0.5069    -0.0315 H       
  16 H16            3.3597     1.9291    -0.0182 H       
  17 H17           -0.0197     5.2603     0.0289 H       
  18 H18           -2.1436     4.0265     0.0435 H       
  19 H19           -2.7551     1.2521     0.9054 H       
  20 H20            2.6832     4.4273    -0.8834 H       
@<TRIPOS>BOND
   1    1    2 ar
   2    1    6 ar
   3    1   10 ar
   4    2    3 ar
   5    2   13 1
   6    3    4 ar
   7    3   14 1
   8    4    5 ar
   9    4   15 1
  10    5    6 ar
  11    5   16 1
  12    6    7 ar
  13    7    8 ar
  14    7   12 1
  15    8    9 ar
  16    8   17 1
  17    9   10 ar
  18    9   18 1
  19   10   11 1
  20   11   19 1
  21   12   20 1

#	End of record

