#	Name: ASD07930802
#	Creating user name:	WinNT
#	Creation time:	15. 06. 2019 21:13

#	Modifying user name:	WinNT
#	Modification time:	15. 06. 2019 21:13

#	Program:	/corina/corina34_cracker 3.40 0067  02.08.2006

@<TRIPOS>MOLECULE
ASD07930802
  44   46    0    0    0
SMALL
NO_CHARGES


@<TRIPOS>ATOM
   1 C1             2.9708    -1.1777    -1.4908 C.3     
   2 N2             2.4550    -3.0909     0.7418 N.2     
   3 N3             0.4222    -3.4515    -0.3532 N.pl3   
   4 C4            -0.9005    -2.8248    -0.2586 C.3     
   5 C5            -0.9795    -1.6575    -1.2522 C.3     
   6 S6             0.3863    -0.5085    -0.8934 S.o2    
   7 N7             1.7091    -1.5197    -0.8293 N.am    
   8 C8             1.5566    -2.7018    -0.1188 C.2     
   9 C9            -1.1175    -2.3016     1.1626 C.3     
  10 C10           -1.9634    -3.8404    -0.5898 C.ar    
  11 C11           -2.7958    -3.6333    -1.6685 C.ar    
  12 C12           -3.7751    -4.5679    -1.9753 C.ar    
  13 C13           -3.9158    -5.7218    -1.1865 C.ar    
  14 C14           -3.0645    -5.9178    -0.0955 C.ar    
  15 C15           -2.0942    -4.9826     0.1912 C.ar    
  16 F16           -1.2709    -5.1720     1.2455 F       
  17 N17           -4.7418    -4.6586    -2.9584 N.pl3   
  18 C18           -5.4204    -5.8192    -2.7524 C.2     
  19 N19           -4.9380    -6.4415    -1.7165 N.2     
  20 C20           -6.5650    -6.3120    -3.5998 C.3     
  21 O21            0.6377     0.3391    -2.0058 O.2     
  22 O22            0.2723     0.0150     0.4228 O.2     
  23 C23           -7.3947    -5.1194    -4.0797 C.3     
  24 C24           -6.0146    -7.0701    -4.8093 C.3     
  25 H25            3.6036    -0.6202    -0.8004 H       
  26 H26            3.4813    -2.0917    -1.7943 H       
  27 H27            2.7661    -0.5669    -2.3701 H       
  28 H28            3.2464    -2.5512     0.8943 H       
  29 H29            0.4991    -4.3924    -0.5763 H       
  30 H30           -0.8846    -2.0346    -2.2705 H       
  31 H31           -1.9331    -1.1419    -1.1382 H       
  32 H32           -0.3493    -1.5657     1.4002 H       
  33 H33           -2.1005    -1.8360     1.2323 H       
  34 H34           -1.0572    -3.1304     1.8681 H       
  35 H35           -2.6865    -2.7455    -2.2737 H       
  36 H36           -3.1638    -6.8013     0.5177 H       
  37 H37           -4.9062    -4.0139    -3.6642 H       
  38 H38           -7.1940    -6.9779    -3.0090 H       
  39 H39           -7.7868    -4.5793    -3.2180 H       
  40 H40           -6.7657    -4.4534    -4.6705 H       
  41 H41           -8.2225    -5.4758    -4.6926 H       
  42 H42           -5.4235    -7.9197    -4.4674 H       
  43 H43           -6.8425    -7.4266    -5.4223 H       
  44 H44           -5.3856    -6.4042    -5.4001 H       
@<TRIPOS>BOND
   1    1    7 1
   2    1   25 1
   3    1   26 1
   4    1   27 1
   5    2    8 2
   6    2   28 1
   7    3    4 1
   8    3    8 1
   9    3   29 1
  10    4    5 1
  11    4    9 1
  12    4   10 1
  13    5    6 1
  14    5   30 1
  15    5   31 1
  16    6    7 am
  17    6   21 2
  18    6   22 2
  19    7    8 1
  20    9   32 1
  21    9   33 1
  22    9   34 1
  23   10   11 ar
  24   10   15 ar
  25   11   12 ar
  26   11   35 1
  27   12   13 ar
  28   12   17 1
  29   13   14 ar
  30   13   19 1
  31   14   15 ar
  32   14   36 1
  33   15   16 1
  34   17   18 1
  35   17   37 1
  36   18   19 2
  37   18   20 1
  38   20   24 1
  39   20   23 1
  40   20   38 1
  41   23   39 1
  42   23   40 1
  43   23   41 1
  44   24   42 1
  45   24   43 1
  46   24   44 1

#	End of record

