#	Name: ASD01814320
#	Creating user name:	WinNT
#	Creation time:	15. 06. 2019 19:32

#	Modifying user name:	WinNT
#	Modification time:	15. 06. 2019 19:32

#	Program:	/corina/corina34_cracker 3.40 0067  02.08.2006

@<TRIPOS>MOLECULE
ASD01814320
  60   64    0    0    0
SMALL
NO_CHARGES


@<TRIPOS>ATOM
   1 N1             0.4802     2.5189     2.9992 N.2     
   2 C2             0.3587     1.5214     3.8430 C.2     
   3 C3             1.2265     1.4135     4.9405 C.2     
   4 C4             2.1916     2.3489     5.1214 C.2     
   5 N5             2.2960     3.3769     4.2281 N.pl3   
   6 C6             1.4298     3.4487     3.1679 C.2     
   7 N7             3.1630     4.4711     4.1419 N.2     
   8 C8             2.8464     5.1835     3.0794 C.2     
   9 C9             1.7732     4.5834     2.4425 C.2     
  10 C10            3.2369     6.4201     2.3078 C.3     
  11 N11            2.3317     6.5348     1.1602 N.am    
  12 C12            1.4096     5.3965     1.2268 C.3     
  13 C13            2.3445     7.5026     0.2224 C.2     
  14 O14            1.5928     7.4353    -0.7311 O.2     
  15 C15            3.2698     8.6429     0.3524 C.ar    
  16 C16            2.7966     9.9549     0.2048 C.ar    
  17 C17            4.6216     8.4221     0.6291 C.ar    
  18 C18            5.4817     9.4908     0.7501 C.ar    
  19 C19            5.0116    10.7880     0.5983 C.ar    
  20 C20            3.6741    11.0197     0.3293 C.ar    
  21 O21            1.4853    10.1802    -0.0593 O.3     
  22 Cl22           1.0657     0.0943     6.0573 Cl      
  23 F23            5.8632    11.8299     0.7192 F       
  24 C24           -0.7176     0.4877     3.6328 C.3     
  25 C25            3.1356     2.2558     6.2923 C.3     
  26 C26            1.0759    11.5425    -0.1966 C.3     
  27 C27           -0.4247    11.5970    -0.4901 C.3     
  28 N28           -1.1699    11.1028     0.6754 N.3     
  29 C29           -0.9161     9.6624     0.8950 C.3     
  30 C30           -2.2207     9.0517     1.4395 C.3     
  31 C31           -3.2279    10.2238     1.4826 C.3     
  32 C32           -2.6346    11.2282     0.4630 C.3     
  33 C33           -3.1050    12.6512     0.7705 C.3     
  34 H34            3.1390     7.2991     2.9448 H       
  35 H35            4.2656     6.3284     1.9591 H       
  36 H36            1.5108     4.7856     0.3298 H       
  37 H37            0.3846     5.7565     1.3161 H       
  38 H38            4.9914     7.4144     0.7484 H       
  39 H39            6.5262     9.3189     0.9643 H       
  40 H40            3.3140    12.0316     0.2160 H       
  41 H41           -1.2887     0.7345     2.7379 H       
  42 H42           -0.2597    -0.4942     3.5124 H       
  43 H43           -1.3827     0.4749     4.4963 H       
  44 H44            2.8933     1.3737     6.8851 H       
  45 H45            4.1600     2.1785     5.9279 H       
  46 H46            3.0363     3.1477     6.9109 H       
  47 H47            1.2849    12.0797     0.7285 H       
  48 H48            1.6237    12.0055    -1.0174 H       
  49 H49           -0.7170    12.6261    -0.6986 H       
  50 H50           -0.6485    10.9733    -1.3556 H       
  51 H51           -0.6475     9.1848    -0.0473 H       
  52 H52           -0.1140     9.5332     1.6217 H       
  53 H53           -2.5796     8.2688     0.7714 H       
  54 H54           -2.0622     8.6521     2.4411 H       
  55 H55           -4.2177     9.8935     1.1674 H       
  56 H56           -3.2660    10.6632     2.4794 H       
  57 H57           -2.9012    10.9453    -0.5554 H       
  58 H58           -2.5921    13.3534     0.1132 H       
  59 H59           -4.1806    12.7213     0.6085 H       
  60 H60           -2.8774    12.8927     1.8087 H       
@<TRIPOS>BOND
   1    1    2 2
   2    1    6 1
   3    2    3 1
   4    2   24 1
   5    3    4 2
   6    3   22 1
   7    4    5 1
   8    4   25 1
   9    5    7 1
  10    5    6 1
  11    6    9 2
  12    7    8 2
  13    8   10 1
  14    8    9 1
  15    9   12 1
  16   10   11 1
  17   10   34 1
  18   10   35 1
  19   11   12 1
  20   11   13 am
  21   12   36 1
  22   12   37 1
  23   13   14 2
  24   13   15 1
  25   15   17 ar
  26   15   16 ar
  27   16   20 ar
  28   16   21 1
  29   17   18 ar
  30   17   38 1
  31   18   19 ar
  32   18   39 1
  33   19   20 ar
  34   19   23 1
  35   20   40 1
  36   21   26 1
  37   24   41 1
  38   24   42 1
  39   24   43 1
  40   25   44 1
  41   25   45 1
  42   25   46 1
  43   26   27 1
  44   26   47 1
  45   26   48 1
  46   27   28 1
  47   27   49 1
  48   27   50 1
  49   28   29 1
  50   28   32 1
  51   29   30 1
  52   29   51 1
  53   29   52 1
  54   30   31 1
  55   30   53 1
  56   30   54 1
  57   31   32 1
  58   31   55 1
  59   31   56 1
  60   32   33 1
  61   32   57 1
  62   33   58 1
  63   33   59 1
  64   33   60 1

#	End of record

