#	Name: ASD01911933
#	Creating user name:	WinNT
#	Creation time:	15. 06. 2019 19:58

#	Modifying user name:	WinNT
#	Modification time:	15. 06. 2019 19:58

#	Program:	/corina/corina34_cracker 3.40 0067  02.08.2006

@<TRIPOS>MOLECULE
ASD01911933
  35   37    0    0    0
SMALL
NO_CHARGES


@<TRIPOS>ATOM
   1 C1             0.4112     0.1148    -1.8760 C.ar    
   2 C2            -0.0799     0.0132    -0.5783 C.ar    
   3 C3             0.6066     0.6678     0.4394 C.ar    
   4 N4             1.6940     1.3585     0.1392 N.ar    
   5 C5             2.1279     1.4309    -1.1031 C.ar    
   6 N6             1.5056     0.8251    -2.0944 N.ar    
   7 O7            -1.2015    -0.7064    -0.3118 O.3     
   8 C8            -1.0958    -2.0610    -0.2708 C.ar    
   9 C9            -2.2179    -2.8381    -0.0117 C.ar    
  10 C10           -2.1105    -4.2185     0.0300 C.ar    
  11 C11           -0.8857    -4.8254    -0.1866 C.ar    
  12 C12            0.2374    -4.0512    -0.4458 C.ar    
  13 C13            0.1302    -2.6678    -0.4932 C.ar    
  14 N14            1.4757    -4.6653    -0.6643 N.am    
  15 C15            1.5334    -5.8717    -1.2623 C.2     
  16 C16            2.8305    -6.5672    -1.3997 C.ar    
  17 O17            0.5188    -6.3879    -1.6887 O.2     
  18 C18            2.8936    -7.8166    -2.0185 C.ar    
  19 F19           -3.2023    -4.9731     0.2830 F       
  20 C20            4.1069    -8.4616    -2.1442 C.ar    
  21 C21            5.2604    -7.8735    -1.6582 C.ar    
  22 C22            5.2061    -6.6332    -1.0420 C.ar    
  23 C23            3.9981    -5.9745    -0.9162 C.ar    
  24 F24            6.3369    -6.0649    -0.5692 F       
  25 F25           -3.4143    -2.2473     0.2000 F       
  26 H26           -0.0911    -0.3827    -2.6924 H       
  27 H27            0.2565     0.6131     1.4597 H       
  28 H28            3.0190     2.0031    -1.3150 H       
  29 H29           -0.8033    -5.9018    -0.1538 H       
  30 H30            1.0031    -2.0647    -0.6950 H       
  31 H31            2.2925    -4.2226    -0.3854 H       
  32 H32            1.9939    -8.2781    -2.3981 H       
  33 H33            4.1558    -9.4285    -2.6230 H       
  34 H34            6.2074    -8.3830    -1.7589 H       
  35 H35            3.9560    -5.0078    -0.4364 H       
@<TRIPOS>BOND
   1    1    2 ar
   2    1    6 ar
   3    1   26 1
   4    2    3 ar
   5    2    7 1
   6    3    4 ar
   7    3   27 1
   8    4    5 ar
   9    5    6 ar
  10    5   28 1
  11    7    8 1
  12    8    9 ar
  13    8   13 ar
  14    9   10 ar
  15    9   25 1
  16   10   11 ar
  17   10   19 1
  18   11   12 ar
  19   11   29 1
  20   12   13 ar
  21   12   14 1
  22   13   30 1
  23   14   15 am
  24   14   31 1
  25   15   16 1
  26   15   17 2
  27   16   18 ar
  28   16   23 ar
  29   18   20 ar
  30   18   32 1
  31   20   21 ar
  32   20   33 1
  33   21   22 ar
  34   21   34 1
  35   22   23 ar
  36   22   24 1
  37   23   35 1

#	End of record

