#	Name: ASD09080018
#	Creating user name:	WinNT
#	Creation time:	15. 06. 2019 21:20

#	Modifying user name:	WinNT
#	Modification time:	15. 06. 2019 21:20

#	Program:	/corina/corina34_cracker 3.40 0067  02.08.2006

@<TRIPOS>MOLECULE
ASD09080018
  49   50    0    0    0
SMALL
NO_CHARGES


@<TRIPOS>ATOM
   1 C1            -0.0167     1.3799     0.0096 C.ar    
   2 C2             0.0021    -0.0041     0.0020 C.ar    
   3 C3            -1.1844    -0.7169     0.0091 C.ar    
   4 C4            -2.3938    -0.0494     0.0242 C.ar    
   5 C5            -2.4179     1.3436     0.0324 C.ar    
   6 C6            -1.2209     2.0565     0.0305 C.ar    
   7 Cl7            1.4756     2.2669     0.0001 Cl      
   8 Cl8           -1.1526    -2.4526    -0.0017 Cl      
   9 C9            -3.7143     2.0655     0.0481 C.ar    
  10 C10           -3.7388     3.4586     0.0563 C.ar    
  11 C11           -4.9474     4.1250     0.0704 C.ar    
  12 C12           -6.1329     3.4124     0.0765 C.ar    
  13 C13           -6.1145     2.0293     0.0689 C.ar    
  14 C14           -4.9116     1.3528     0.0489 C.ar    
  15 C15           -7.4494     4.1455     0.0919 C.3     
  16 C16           -7.9073     4.4019    -1.3453 C.3     
  17 C17           -9.3006     5.0339    -1.3316 C.3     
  18 O18           -9.2820     6.2106    -0.5211 O.3     
  19 N19           -6.9653     5.3107    -2.0032 N.am    
  20 O20           -5.9770     6.1337    -3.9499 O.3     
  21 C21           -5.8975     6.0656    -5.3981 C.3     
  22 C22           -7.2671     6.3871    -5.9997 C.3     
  23 C23           -4.8688     7.0805    -5.9007 C.3     
  24 C24           -5.4730     4.6575    -5.8200 C.3     
  25 C25           -6.8427     5.2984    -3.3453 C.2     
  26 O26           -7.5135     4.5335    -4.0096 O.2     
  27 H27            0.9456    -0.5295    -0.0098 H       
  28 H28           -3.3190    -0.6065     0.0293 H       
  29 H29           -1.2346     3.1364     0.0372 H       
  30 H30           -2.8137     4.0160     0.0519 H       
  31 H31           -4.9675     5.2048     0.0771 H       
  32 H32           -7.0430     1.4778     0.0744 H       
  33 H33           -4.8983     0.2729     0.0430 H       
  34 H34           -8.1955     3.5418     0.6087 H       
  35 H35           -7.3295     5.0969     0.6102 H       
  36 H36           -7.9418     3.4581    -1.8895 H       
  37 H37           -9.5898     5.2979    -2.3488 H       
  38 H38          -10.0183     4.3225    -0.9229 H       
  39 H39          -10.1342     6.6643    -0.4667 H       
  40 H40           -6.4298     5.9213    -1.4728 H       
  41 H41           -7.5695     7.3902    -5.6991 H       
  42 H42           -7.2074     6.3360    -7.0868 H       
  43 H43           -8.0000     5.6640    -5.6416 H       
  44 H44           -3.8931     6.8515    -5.4721 H       
  45 H45           -4.8092     7.0294    -6.9879 H       
  46 H46           -5.1713     8.0837    -5.6002 H       
  47 H47           -6.2058     3.9345    -5.4619 H       
  48 H48           -5.4133     4.6064    -6.9071 H       
  49 H49           -4.4973     4.4285    -5.3914 H       
@<TRIPOS>BOND
   1    1    2 ar
   2    1    7 1
   3    1    6 ar
   4    2    3 ar
   5    2   27 1
   6    3    4 ar
   7    3    8 1
   8    4    5 ar
   9    4   28 1
  10    5    6 ar
  11    5    9 1
  12    6   29 1
  13    9   10 ar
  14    9   14 ar
  15   10   11 ar
  16   10   30 1
  17   11   12 ar
  18   11   31 1
  19   12   13 ar
  20   12   15 1
  21   13   14 ar
  22   13   32 1
  23   14   33 1
  24   15   16 1
  25   15   34 1
  26   15   35 1
  27   16   17 1
  28   16   19 1
  29   16   36 1
  30   17   18 1
  31   17   37 1
  32   17   38 1
  33   18   39 1
  34   19   25 am
  35   19   40 1
  36   20   21 1
  37   20   25 1
  38   21   22 1
  39   21   23 1
  40   21   24 1
  41   22   41 1
  42   22   42 1
  43   22   43 1
  44   23   44 1
  45   23   45 1
  46   23   46 1
  47   24   47 1
  48   24   48 1
  49   24   49 1
  50   25   26 2

#	End of record

