#	Name: ASD03092360
#	Creating user name:	WinNT
#	Creation time:	15. 06. 2019 20:32

#	Modifying user name:	WinNT
#	Modification time:	15. 06. 2019 20:32

#	Program:	/corina/corina34_cracker 3.40 0067  02.08.2006

@<TRIPOS>MOLECULE
ASD03092360
  53   56    0    0    0
SMALL
NO_CHARGES


@<TRIPOS>ATOM
   1 C1             0.3381     1.9854     0.1444 C.2     
   2 C2             0.5501     0.5255     0.2226 C.ar    
   3 C3             1.8460     0.0052     0.2342 C.ar    
   4 C4             2.0381    -1.3577     0.3078 C.ar    
   5 C5             0.9476    -2.2117     0.3697 C.ar    
   6 C6            -0.3412    -1.7005     0.3585 C.ar    
   7 C7            -0.5446    -0.3389     0.2910 C.ar    
   8 O8             1.2927     2.7361     0.0900 O.2     
   9 N9            -0.9137     2.4846     0.1277 N.am    
  10 F10            1.1414    -3.5468     0.4408 F       
  11 C11           -1.1239     3.9324     0.0502 C.3     
  12 S12           -4.9827     4.7280    -0.6388 S.3     
  13 C13           -4.5793     4.5792     1.0156 C.2     
  14 N14           -3.3129     4.3217     1.1493 N.2     
  15 C15           -2.6021     4.2258     0.0468 C.2     
  16 C16           -3.3084     4.4133    -1.0877 C.2     
  17 N17           -5.4731     4.7142     2.0623 N.3     
  18 C18           -6.8261     5.0039     1.5656 C.3     
  19 C19           -7.7921     5.0860     2.7505 C.3     
  20 O20           -7.3285     6.0792     3.6692 O.3     
  21 C21           -6.0139     5.8281     4.1734 C.3     
  22 C22           -5.0299     5.7535     3.0029 C.3     
  23 C23           -2.5476     5.2854    -4.6605 C.ar    
  24 C24           -3.0695     5.3723    -3.3881 C.ar    
  25 C25           -2.7728     4.3632    -2.4621 C.ar    
  26 C26           -1.9530     3.3053    -2.8776 C.ar    
  27 C27           -1.4747     3.2991    -4.1699 C.ar    
  28 N28           -1.7790     4.2706    -5.0105 N.ar    
  29 C29           -0.5916     2.1679    -4.6300 C.3     
  30 C30           -2.8636     6.3603    -5.6683 C.3     
  31 H31            2.6961     0.6695     0.1853 H       
  32 H32            3.0399    -1.7611     0.3168 H       
  33 H33           -1.1872    -2.3701     0.4070 H       
  34 H34           -1.5489     0.0586     0.2865 H       
  35 H35           -1.6754     1.8853     0.1671 H       
  36 H36           -0.6600     4.4135     0.9112 H       
  37 H37           -0.6752     4.3161    -0.8660 H       
  38 H38           -6.8224     5.9546     1.0325 H       
  39 H39           -7.1442     4.2089     0.8911 H       
  40 H40           -8.7853     5.3569     2.3923 H       
  41 H41           -7.8365     4.1191     3.2517 H       
  42 H42           -5.7210     6.6357     4.8442 H       
  43 H43           -6.0065     4.8827     4.7159 H       
  44 H44           -4.0367     5.5057     3.3776 H       
  45 H45           -4.9974     6.7162     2.4927 H       
  46 H46           -3.6972     6.2055    -3.1087 H       
  47 H47           -1.6997     2.5074    -2.1953 H       
  48 H48           -1.2086     1.3712    -5.0455 H       
  49 H49            0.0958     2.5312    -5.3939 H       
  50 H50           -0.0232     1.7832    -3.7832 H       
  51 H51           -2.1119     7.1474    -5.6078 H       
  52 H52           -2.8604     5.9312    -6.6703 H       
  53 H53           -3.8469     6.7799    -5.4558 H       
@<TRIPOS>BOND
   1    1    2 1
   2    1    8 2
   3    1    9 am
   4    2    3 ar
   5    2    7 ar
   6    3    4 ar
   7    3   31 1
   8    4    5 ar
   9    4   32 1
  10    5    6 ar
  11    5   10 1
  12    6    7 ar
  13    6   33 1
  14    7   34 1
  15    9   11 1
  16    9   35 1
  17   11   15 1
  18   11   36 1
  19   11   37 1
  20   12   13 1
  21   12   16 1
  22   13   14 2
  23   13   17 1
  24   14   15 1
  25   15   16 2
  26   16   25 1
  27   17   18 1
  28   17   22 1
  29   18   19 1
  30   18   38 1
  31   18   39 1
  32   19   20 1
  33   19   40 1
  34   19   41 1
  35   20   21 1
  36   21   22 1
  37   21   42 1
  38   21   43 1
  39   22   44 1
  40   22   45 1
  41   23   24 ar
  42   23   28 ar
  43   23   30 1
  44   24   25 ar
  45   24   46 1
  46   25   26 ar
  47   26   27 ar
  48   26   47 1
  49   27   28 ar
  50   27   29 1
  51   29   48 1
  52   29   49 1
  53   29   50 1
  54   30   51 1
  55   30   52 1
  56   30   53 1

#	End of record

