#	Name: ASD03080212
#	Creating user name:	WinNT
#	Creation time:	15. 06. 2019 20:26

#	Modifying user name:	WinNT
#	Modification time:	15. 06. 2019 20:26

#	Program:	/corina/corina34_cracker 3.40 0067  02.08.2006

@<TRIPOS>MOLECULE
ASD03080212
  26   28    0    0    0
SMALL
NO_CHARGES


@<TRIPOS>ATOM
   1 C1            -0.0168     1.3902     0.0097 C.ar    
   2 C2             0.0021    -0.0041     0.0020 C.ar    
   3 C3            -1.2218    -0.6813     0.0106 C.ar    
   4 C4            -2.4052     0.0600     0.0263 C.ar    
   5 N5            -2.3766     1.3769     0.0327 N.ar    
   6 C6            -1.2443     2.0511     0.0308 C.ar    
   7 C7             1.2524     2.1602     0.0017 C.2     
   8 N8             1.3718     3.5043     0.0078 N.2     
   9 C9             2.6699     3.7433    -0.0033 C.2     
  10 O10            3.2854     2.5507    -0.0156 O.3     
  11 N11            2.4616     1.6607    -0.0068 N.2     
  12 C12            3.3209     5.0700    -0.0029 C.ar    
  13 C13            2.5544     6.2353     0.0102 C.ar    
  14 N14            3.1332     7.4185     0.0107 N.ar    
  15 C15            4.4476     7.5514    -0.0007 C.ar    
  16 C16            5.2783     6.4404    -0.0141 C.ar    
  17 C17            4.7178     5.1773    -0.0097 C.ar    
  18 F18            4.9911     8.7882     0.0004 F       
  19 C19           -1.2607    -2.1128     0.0028 C.1     
  20 N20           -1.2915    -3.2483    -0.0034 N.1     
  21 H21            0.9361    -0.5462    -0.0105 H       
  22 H22           -3.3557    -0.4528     0.0330 H       
  23 H23           -1.2676     3.1308     0.0366 H       
  24 H24            1.4766     6.1668     0.0198 H       
  25 H25            6.3515     6.5614    -0.0237 H       
  26 H26            5.3408     4.2952    -0.0195 H       
@<TRIPOS>BOND
   1    1    2 ar
   2    1    7 1
   3    1    6 ar
   4    2    3 ar
   5    2   21 1
   6    3   19 1
   7    3    4 ar
   8    4    5 ar
   9    4   22 1
  10    5    6 ar
  11    6   23 1
  12    7    8 1
  13    7   11 2
  14    8    9 2
  15    9   10 1
  16    9   12 1
  17   10   11 1
  18   12   13 ar
  19   12   17 ar
  20   13   14 ar
  21   13   24 1
  22   14   15 ar
  23   15   16 ar
  24   15   18 1
  25   16   17 ar
  26   16   25 1
  27   17   26 1
  28   19   20 3

#	End of record

