#	Name: ASD04590057
#	Creating user name:	WinNT
#	Creation time:	15. 06. 2019 20:50

#	Modifying user name:	WinNT
#	Modification time:	15. 06. 2019 20:50

#	Program:	/corina/corina34_cracker 3.40 0067  02.08.2006

@<TRIPOS>MOLECULE
ASD04590057
  39   41    0    0    0
SMALL
NO_CHARGES


@<TRIPOS>ATOM
   1 N1            -0.0768     1.2682    -0.0495 N.pl3   
   2 N2            -0.0362    -0.0145     0.0019 N.2     
   3 C3             1.1928    -0.4418    -0.2150 C.2     
   4 C4             2.0015     0.7055    -0.4237 C.2     
   5 C5             1.1590     1.7667    -0.3105 C.2     
   6 C6             1.6418    -1.8465    -0.2359 C.2     
   7 O7             2.8101    -2.1083    -0.4485 O.2     
   8 N8             0.7572    -2.8400    -0.0194 N.am    
   9 C9             1.1617    -4.1748    -0.1354 C.ar    
  10 C10            2.4397    -4.5506     0.2569 C.ar    
  11 C11            2.8367    -5.8684     0.1421 C.ar    
  12 C12            1.9616    -6.8146    -0.3643 C.ar    
  13 C13            0.6868    -6.4420    -0.7562 C.ar    
  14 C14            0.2838    -5.1263    -0.6376 C.ar    
  15 F15            2.3523    -8.1030    -0.4767 F       
  16 N16            3.3783     0.7379    -0.6900 N.am    
  17 C17            4.0032     1.9192    -0.8650 C.2     
  18 C18            5.4541     1.9533    -1.1455 C.ar    
  19 C19            6.1044     3.1750    -1.3272 C.ar    
  20 C20            7.4587     3.1999    -1.5889 C.ar    
  21 C21            8.1722     2.0173    -1.6717 C.ar    
  22 C22            7.5336     0.8029    -1.4931 C.ar    
  23 C23            6.1811     0.7643    -1.2243 C.ar    
  24 O24            3.3736     2.9566    -0.7920 O.2     
  25 N25            9.6249     2.0515    -1.9532 N.pl3   
  26 O26           10.1897     3.1190    -2.1113 O.2     
  27 O27           10.2556     1.0121    -2.0268 O.2     
  28 H28           -0.8759     1.8036     0.0760 H       
  29 H29            1.4229     2.8093    -0.4094 H       
  30 H30           -0.1599    -2.6299     0.2168 H       
  31 H31            3.1228    -3.8129     0.6513 H       
  32 H32            3.8306    -6.1611     0.4471 H       
  33 H33            0.0059    -7.1814    -1.1512 H       
  34 H34           -0.7121    -4.8369    -0.9392 H       
  35 H35            3.8807    -0.0898    -0.7482 H       
  36 H36            5.5485     4.0988    -1.2635 H       
  37 H37            7.9630     4.1444    -1.7296 H       
  38 H38            8.0963    -0.1166    -1.5594 H       
  39 H39            5.6848    -0.1840    -1.0799 H       
@<TRIPOS>BOND
   1    1    2 1
   2    1    5 1
   3    1   28 1
   4    2    3 2
   5    3    4 1
   6    3    6 1
   7    4    5 2
   8    4   16 1
   9    5   29 1
  10    6    7 2
  11    6    8 am
  12    8    9 1
  13    8   30 1
  14    9   10 ar
  15    9   14 ar
  16   10   11 ar
  17   10   31 1
  18   11   12 ar
  19   11   32 1
  20   12   13 ar
  21   12   15 1
  22   13   14 ar
  23   13   33 1
  24   14   34 1
  25   16   17 am
  26   16   35 1
  27   17   18 1
  28   17   24 2
  29   18   19 ar
  30   18   23 ar
  31   19   20 ar
  32   19   36 1
  33   20   21 ar
  34   20   37 1
  35   21   22 ar
  36   21   25 1
  37   22   23 ar
  38   22   38 1
  39   23   39 1
  40   25   26 2
  41   25   27 2

#	End of record

