#	Name: ASD01140515
#	Creating user name:	WinNT
#	Creation time:	15. 06. 2019 19:01

#	Modifying user name:	WinNT
#	Modification time:	15. 06. 2019 19:01

#	Program:	/corina/corina34_cracker 3.40 0067  02.08.2006

@<TRIPOS>MOLECULE
ASD01140515
  50   53    0    0    0
SMALL
NO_CHARGES


@<TRIPOS>ATOM
   1 C1            -0.1136     1.4038     0.0380 C.ar    
   2 C2            -0.1383     0.0270     0.0730 C.ar    
   3 C3             1.0504    -0.6870     0.1634 C.ar    
   4 C4             2.2557    -0.0175     0.2130 C.ar    
   5 C5             2.2939     1.3865     0.1731 C.ar    
   6 C6             1.0959     2.0951     0.0923 C.ar    
   7 O7             1.0256    -2.0457     0.2035 O.3     
   8 C8            -0.2571    -2.6731     0.1486 C.3     
   9 N9             1.0379     3.4911     0.0778 N.pl3   
  10 C10            3.6145     2.0281     0.2041 C.2     
  11 C11            2.9573     3.9368     1.6820 C.3     
  12 O12            4.5103     1.5044    -0.4296 O.2     
  13 N13            0.3776     5.5062    -0.3874 N.2     
  14 C14            0.1617     4.2480    -0.6424 C.2     
  15 C15            1.8252     4.3475     0.7795 C.2     
  16 C16            1.4048     5.6099     0.4974 C.2     
  17 C17            1.9593     6.8571     1.0476 C.2     
  18 O18            1.7044     7.1834     2.1904 O.2     
  19 O19            2.7500     7.6375     0.2843 O.3     
  20 C20            3.2614     8.8528     0.8925 C.3     
  21 C21            4.1003     8.4943     2.1208 C.3     
  22 C22            4.1318     9.6019    -0.1186 C.3     
  23 C23            2.0911     9.7426     1.3161 C.3     
  24 C24            3.7106     5.1826     2.1850 C.3     
  25 N25            3.9037     3.1460     0.8777 N.am    
  26 C26            5.2200     3.8112     0.9142 C.3     
  27 C27            5.1894     4.7105     2.1740 C.3     
  28 H28           -1.0404     1.9533    -0.0367 H       
  29 H29           -1.0815    -0.4974     0.0305 H       
  30 H30            3.1769    -0.5768     0.2835 H       
  31 H31           -0.1343    -3.7554     0.1888 H       
  32 H32           -0.8591    -2.3441     0.9957 H       
  33 H33           -0.7565    -2.3983    -0.7805 H       
  34 H34            2.5918     3.3485     2.5236 H       
  35 H35           -0.5902     3.8652    -1.3166 H       
  36 H36            4.9340     7.8604     1.8190 H       
  37 H37            4.4842     9.4066     2.5774 H       
  38 H38            3.4802     7.9607     2.8411 H       
  39 H39            3.5341     9.8572    -0.9936 H       
  40 H40            4.5157    10.5141     0.3380 H       
  41 H41            4.9655     8.9679    -0.4204 H       
  42 H42            1.4711     9.2090     2.0364 H       
  43 H43            2.4751    10.6549     1.7727 H       
  44 H44            1.4935     9.9980     0.4411 H       
  45 H45            3.5685     6.0218     1.5041 H       
  46 H46            3.3943     5.4445     3.1947 H       
  47 H47            6.0153     3.0705     0.9981 H       
  48 H48            5.3612     4.4184     0.0201 H       
  49 H49            5.8687     5.5562     2.0678 H       
  50 H50            5.4222     4.1346     3.0697 H       
@<TRIPOS>BOND
   1    1    2 ar
   2    1    6 ar
   3    1   28 1
   4    2    3 ar
   5    2   29 1
   6    3    4 ar
   7    3    7 1
   8    4    5 ar
   9    4   30 1
  10    5    6 ar
  11    5   10 1
  12    6    9 1
  13    7    8 1
  14    8   31 1
  15    8   32 1
  16    8   33 1
  17    9   15 1
  18    9   14 1
  19   10   25 am
  20   10   12 2
  21   11   24 1
  22   11   25 1
  23   11   15 1
  24   11   34 1
  25   13   14 2
  26   13   16 1
  27   14   35 1
  28   15   16 2
  29   16   17 1
  30   17   18 2
  31   17   19 1
  32   19   20 1
  33   20   21 1
  34   20   22 1
  35   20   23 1
  36   21   36 1
  37   21   37 1
  38   21   38 1
  39   22   39 1
  40   22   40 1
  41   22   41 1
  42   23   42 1
  43   23   43 1
  44   23   44 1
  45   24   27 1
  46   24   45 1
  47   24   46 1
  48   25   26 1
  49   26   27 1
  50   26   47 1
  51   26   48 1
  52   27   49 1
  53   27   50 1

#	End of record

