#	Name: ASD04910062
#	Creating user name:	WinNT
#	Creation time:	15. 06. 2019 20:55

#	Modifying user name:	WinNT
#	Modification time:	15. 06. 2019 20:55

#	Program:	/corina/corina34_cracker 3.40 0067  02.08.2006

@<TRIPOS>MOLECULE
ASD04910062
  28   29    0    0    0
SMALL
NO_CHARGES


@<TRIPOS>ATOM
   1 N1             0.0189     1.4485     0.0099 N.pl3   
   2 N2             0.2528     0.3105     0.7927 N.2     
   3 C3             1.4428    -0.1494     0.5006 C.2     
   4 C4             2.0051     0.6794    -0.4763 C.2     
   5 C5             1.1106     1.6540    -0.7611 C.2     
   6 C6             3.3669     0.5159    -1.1009 C.3     
   7 F7             3.9995    -0.6053    -0.5533 F       
   8 F8             3.2288     0.3451    -2.4825 F       
   9 F9             4.1365     1.6562    -0.8466 F       
  10 C10           -1.1437     2.2321     0.0199 C.ar    
  11 C11           -2.3896     1.6292    -0.0886 C.ar    
  12 C12           -3.5333     2.4033    -0.0786 C.ar    
  13 C13           -3.4382     3.7786     0.0394 C.ar    
  14 C14           -2.1977     4.3819     0.1476 C.ar    
  15 C15           -1.0513     3.6118     0.1439 C.ar    
  16 C16            0.2991     4.2690     0.2686 C.3     
  17 C17           -2.4939     0.1313    -0.2177 C.3     
  18 Br18          -5.0062     4.8355     0.0521 Br      
  19 H19            1.9105    -1.0187     0.9388 H       
  20 H20            1.2443     2.4523    -1.4761 H       
  21 H21           -4.5027     1.9348    -0.1634 H       
  22 H22           -2.1262     5.4556     0.2393 H       
  23 H23            0.7183     4.4293    -0.7247 H       
  24 H24            0.1912     5.2275     0.7764 H       
  25 H25            0.9645     3.6257     0.8443 H       
  26 H26           -2.4726    -0.3211     0.7737 H       
  27 H27           -3.4291    -0.1263    -0.7147 H       
  28 H28           -1.6553    -0.2420    -0.8055 H       
@<TRIPOS>BOND
   1    1    2 1
   2    1    5 1
   3    1   10 1
   4    2    3 2
   5    3    4 1
   6    3   19 1
   7    4    5 2
   8    4    6 1
   9    5   20 1
  10    6    7 1
  11    6    8 1
  12    6    9 1
  13   10   11 ar
  14   10   15 ar
  15   11   12 ar
  16   11   17 1
  17   12   13 ar
  18   12   21 1
  19   13   14 ar
  20   13   18 1
  21   14   15 ar
  22   14   22 1
  23   15   16 1
  24   16   23 1
  25   16   24 1
  26   16   25 1
  27   17   26 1
  28   17   27 1
  29   17   28 1

#	End of record

