#	Name: ASD07480034
#	Creating user name:	WinNT
#	Creation time:	15. 06. 2019 21:11

#	Modifying user name:	WinNT
#	Modification time:	15. 06. 2019 21:11

#	Program:	/corina/corina34_cracker 3.40 0067  02.08.2006

@<TRIPOS>MOLECULE
ASD07480034
  45   49    0    0    0
SMALL
NO_CHARGES


@<TRIPOS>ATOM
   1 C1            -0.0168     1.3905     0.0097 C.ar    
   2 C2             0.0021    -0.0041     0.0020 C.ar    
   3 N3             1.1426    -0.6729    -0.0125 N.ar    
   4 C4             2.3097    -0.0454    -0.0202 C.ar    
   5 C5             2.3612     1.3583    -0.0132 C.ar    
   6 C6             1.1636     2.0836     0.0021 C.ar    
   7 N7             3.6219    -0.4712    -0.0355 N.pl3   
   8 C8             4.4115     0.6417    -0.0373 C.2     
   9 N9             3.6722     1.7118    -0.0242 N.2     
  10 N10           -1.1997    -0.7034     0.0102 N.3     
  11 C11           -1.9165    -0.5413    -1.2746 C.3     
  12 C12           -1.5154    -1.6177    -2.2500 C.ar    
  13 C13           -1.2321    -2.8912    -1.7954 C.ar    
  14 C14           -0.8635    -3.8803    -2.6917 C.ar    
  15 C15           -0.7790    -3.5931    -4.0432 C.ar    
  16 C16           -1.0624    -2.3191    -4.4980 C.ar    
  17 C17           -1.4364    -1.3318    -3.6026 C.ar    
  18 F18           -0.5860    -5.1255    -2.2471 F       
  19 C19            4.0628    -1.8019    -0.0463 C.ar    
  20 C20            3.5564    -2.7088     0.8762 C.ar    
  21 C21            3.9877    -4.0225     0.8701 C.ar    
  22 C22            4.9240    -4.4418    -0.0523 C.ar    
  23 C23            5.4391    -3.5379    -0.9843 C.ar    
  24 C24            4.9995    -2.2138    -0.9810 C.ar    
  25 C25           -1.9838    -0.3818     1.1981 C.3     
  26 C26           -3.4325     0.0458     0.8718 C.3     
  27 S27           -3.6789    -0.7326    -0.7793 S.3     
  28 F28           -1.7139    -0.0866    -4.0472 F       
  29 C29            6.4114    -3.9698    -1.9427 C.1     
  30 N30            7.1828    -4.3125    -2.7031 N.1     
  31 H31           -0.9577     1.9207     0.0170 H       
  32 H32            1.1710     3.1635     0.0075 H       
  33 H33            5.4914     0.6350    -0.0483 H       
  34 H34           -1.7355     0.4474    -1.6962 H       
  35 H35           -1.2977    -3.1153    -0.7409 H       
  36 H36           -0.4912    -4.3644    -4.7422 H       
  37 H37           -0.9961    -2.0949    -5.5524 H       
  38 H38            2.8235    -2.3865     1.6010 H       
  39 H39            3.5904    -4.7226     1.5901 H       
  40 H40            5.2590    -5.4685    -0.0535 H       
  41 H41            5.3937    -1.5102    -1.6993 H       
  42 H42           -2.0143    -1.2580     1.8457 H       
  43 H43           -1.4912     0.4293     1.7343 H       
  44 H44           -4.1335    -0.3570     1.6028 H       
  45 H45           -3.5156     1.1309     0.8091 H       
@<TRIPOS>BOND
   1    1    2 ar
   2    1    6 ar
   3    1   31 1
   4    2    3 ar
   5    2   10 1
   6    3    4 ar
   7    4    5 ar
   8    4    7 1
   9    5    6 ar
  10    5    9 1
  11    6   32 1
  12    7    8 1
  13    7   19 1
  14    8    9 2
  15    8   33 1
  16   10   25 1
  17   10   11 1
  18   11   12 1
  19   11   27 1
  20   11   34 1
  21   12   13 ar
  22   12   17 ar
  23   13   14 ar
  24   13   35 1
  25   14   15 ar
  26   14   18 1
  27   15   16 ar
  28   15   36 1
  29   16   17 ar
  30   16   37 1
  31   17   28 1
  32   19   20 ar
  33   19   24 ar
  34   20   21 ar
  35   20   38 1
  36   21   22 ar
  37   21   39 1
  38   22   23 ar
  39   22   40 1
  40   23   24 ar
  41   23   29 1
  42   24   41 1
  43   25   26 1
  44   25   42 1
  45   25   43 1
  46   26   27 1
  47   26   44 1
  48   26   45 1
  49   29   30 3

#	End of record

