#	Name: ASD05842029
#	Creating user name:	WinNT
#	Creation time:	15. 06. 2019 21:04

#	Modifying user name:	WinNT
#	Modification time:	15. 06. 2019 21:04

#	Program:	/corina/corina34_cracker 3.40 0067  02.08.2006

@<TRIPOS>MOLECULE
ASD05842029
  58   60    0    0    0
SMALL
NO_CHARGES


@<TRIPOS>ATOM
   1 C1             3.0964     1.6920     0.6244 C.ar    
   2 C2             3.9887     2.6534     1.0608 C.ar    
   3 C3             5.2546     2.2840     1.4756 C.ar    
   4 C4             5.6280     0.9532     1.4543 C.ar    
   5 C5             4.7354    -0.0082     1.0187 C.ar    
   6 C6             3.4680     0.3606     0.6082 C.ar    
   7 C7             1.7164     2.0946     0.1723 C.3     
   8 N8             1.7554     2.4657    -1.2486 N.3     
   9 C9             2.5730     3.6684    -1.4562 C.3     
  10 C10            1.8976     4.8663    -0.7856 C.3     
  11 C11            2.7364     6.1001    -0.9987 C.ar    
  12 C12            2.5248     6.8964    -2.1086 C.ar    
  13 C13            3.2942     8.0281    -2.3041 C.ar    
  14 C14            4.2748     8.3637    -1.3894 C.ar    
  15 C15            4.4857     7.5678    -0.2790 C.ar    
  16 C16            3.7134     6.4385    -0.0813 C.ar    
  17 C17            1.1559     0.3138    -2.2049 C.2     
  18 C18            2.2420     1.3499    -2.0709 C.3     
  19 O19            0.0562     0.5294    -1.7533 O.2     
  20 O20            1.4103    -0.8487    -2.8259 O.3     
  21 C21            0.3171    -1.7998    -2.9182 C.3     
  22 C22            0.7933    -3.0545    -3.6530 C.3     
  23 O23            2.8590    -5.7569    -1.2111 O.3     
  24 C24            3.2603    -5.6919    -2.5822 C.3     
  25 C25            2.1396    -5.0530    -3.4066 C.3     
  26 N26            1.8271    -3.7268    -2.8546 N.3     
  27 C27            1.4197    -3.8317    -1.4459 C.3     
  28 C28            2.5477    -4.4827    -0.6412 C.3     
  29 H29            3.6969     3.6931     1.0774 H       
  30 H30            5.9519     3.0352     1.8158 H       
  31 H31            6.6173     0.6648     1.7776 H       
  32 H32            5.0273    -1.0479     1.0018 H       
  33 H33            2.7706    -0.3906     0.2679 H       
  34 H34            1.0304     1.2590     0.3108 H       
  35 H35            1.3752     2.9462     0.7609 H       
  36 H36            3.5602     3.5165    -1.0197 H       
  37 H37            2.6737     3.8592    -2.5247 H       
  38 H38            0.9105     5.0182    -1.2222 H       
  39 H39            1.7969     4.6754     0.2828 H       
  40 H40            1.7587     6.6343    -2.8232 H       
  41 H41            3.1294     8.6499    -3.1716 H       
  42 H42            4.8764     9.2475    -1.5424 H       
  43 H43            5.2521     7.8298     0.4355 H       
  44 H44            3.8782     5.8167     0.7863 H       
  45 H45            2.5157     1.7193    -3.0592 H       
  46 H46            3.1148     0.9021    -1.5959 H       
  47 H47           -0.0151    -2.0699    -1.9158 H       
  48 H48           -0.5107    -1.3499    -3.4663 H       
  49 H49           -0.0487    -3.7307    -3.8006 H       
  50 H50            1.2076    -2.7733    -4.6211 H       
  51 H51            4.1645    -5.0893    -2.6686 H       
  52 H52            3.4561    -6.6982    -2.9523 H       
  53 H53            2.4634    -4.9492    -4.4422 H       
  54 H54            1.2515    -5.6836    -3.3638 H       
  55 H55            1.2180    -2.8362    -1.0503 H       
  56 H56            0.5201    -4.4427    -1.3718 H       
  57 H57            2.2281    -4.6146     0.3925 H       
  58 H58            3.4311    -3.8450    -0.6711 H       
@<TRIPOS>BOND
   1    1    2 ar
   2    1    7 1
   3    1    6 ar
   4    2    3 ar
   5    2   29 1
   6    3    4 ar
   7    3   30 1
   8    4    5 ar
   9    4   31 1
  10    5    6 ar
  11    5   32 1
  12    6   33 1
  13    7    8 1
  14    7   34 1
  15    7   35 1
  16    8    9 1
  17    8   18 1
  18    9   10 1
  19    9   36 1
  20    9   37 1
  21   10   11 1
  22   10   38 1
  23   10   39 1
  24   11   12 ar
  25   11   16 ar
  26   12   13 ar
  27   12   40 1
  28   13   14 ar
  29   13   41 1
  30   14   15 ar
  31   14   42 1
  32   15   16 ar
  33   15   43 1
  34   16   44 1
  35   17   18 1
  36   17   19 2
  37   17   20 1
  38   18   45 1
  39   18   46 1
  40   20   21 1
  41   21   22 1
  42   21   47 1
  43   21   48 1
  44   22   26 1
  45   22   49 1
  46   22   50 1
  47   23   24 1
  48   23   28 1
  49   24   25 1
  50   24   51 1
  51   24   52 1
  52   25   26 1
  53   25   53 1
  54   25   54 1
  55   26   27 1
  56   27   28 1
  57   27   55 1
  58   27   56 1
  59   28   57 1
  60   28   58 1

#	End of record

