#	Name: ASD03430747
#	Creating user name:	WinNT
#	Creation time:	15. 06. 2019 20:41

#	Modifying user name:	WinNT
#	Modification time:	15. 06. 2019 20:41

#	Program:	/corina/corina34_cracker 3.40 0067  02.08.2006

@<TRIPOS>MOLECULE
ASD03430747
  56   62    0    0    0
SMALL
NO_CHARGES


@<TRIPOS>ATOM
   1 C1             2.6703     0.3828     0.0139 C.ar    
   2 C2             2.0898    -0.8973    -0.0296 C.ar    
   3 C3             2.8687    -1.9879    -0.2409 C.ar    
   4 C4             4.2592    -1.8718    -0.4106 C.ar    
   5 C5             4.8485    -0.6345    -0.3801 C.ar    
   6 C6             4.0707     0.5132    -0.1698 C.ar    
   7 O7             4.8344    -3.0970    -0.5766 O.3     
   8 C8             2.5487    -3.4552    -0.3589 C.3     
   9 C9             3.8265    -4.0479    -0.9676 C.3     
  10 C10            0.9468    -4.6206     0.8228 C.ar    
  11 C11            2.2201    -4.0747     0.9669 C.ar    
  12 C12            1.3484    -3.7082    -1.2251 C.2     
  13 N13            0.4658    -4.3904    -0.4684 N.am    
  14 O14            1.2019    -3.3658    -2.3794 O.2     
  15 C15            2.8952    -4.1772     2.1622 C.ar    
  16 C16            2.3108    -4.8280     3.2347 C.ar    
  17 C17            1.0479    -5.3749     3.1026 C.ar    
  18 C18            0.3669    -5.2743     1.9068 C.ar    
  19 C19           -0.8453    -4.8382    -0.9446 C.3     
  20 N20            4.6286     1.7295    -0.1387 N.ar    
  21 N21            1.9275     1.4727     0.2301 N.ar    
  22 C22            2.4991     2.6552     0.2591 C.ar    
  23 C23            3.8759     2.7861     0.0676 C.ar    
  24 C24           -1.9283    -4.1617    -0.1443 C.ar    
  25 C25           -3.0758    -4.8558     0.1910 C.ar    
  26 C26           -4.0693    -4.2352     0.9251 C.ar    
  27 C27           -3.9151    -2.9207     1.3242 C.ar    
  28 C28           -2.7672    -2.2270     0.9896 C.ar    
  29 C29           -1.7718    -2.8488     0.2593 C.ar    
  30 C30           -0.9995    -4.4816    -2.4007 C.ar    
  31 C31           -0.9633    -5.4735    -3.3628 C.ar    
  32 C32           -1.1047    -5.1465    -4.6984 C.ar    
  33 C33           -1.2828    -3.8275    -5.0719 C.ar    
  34 C34           -1.3199    -2.8356    -4.1097 C.ar    
  35 C35           -1.1829    -3.1632    -2.7737 C.ar    
  36 H36            1.0245    -1.0122     0.1055 H       
  37 H37            5.9157    -0.5433    -0.5181 H       
  38 H38            3.7478    -4.1030    -2.0534 H       
  39 H39            4.0368    -5.0300    -0.5440 H       
  40 H40            3.8818    -3.7497     2.2630 H       
  41 H41            2.8403    -4.9088     4.1725 H       
  42 H42            0.5924    -5.8837     3.9393 H       
  43 H43           -0.6194    -5.7037     1.8115 H       
  44 H44           -0.9259    -5.9185    -0.8246 H       
  45 H45            1.8979     3.5352     0.4337 H       
  46 H46            4.3277     3.7668     0.0930 H       
  47 H47           -3.1963    -5.8827    -0.1208 H       
  48 H48           -4.9661    -4.7773     1.1864 H       
  49 H49           -4.6916    -2.4357     1.8970 H       
  50 H50           -2.6469    -1.1999     1.3011 H       
  51 H51           -0.8734    -2.3080     0.0011 H       
  52 H52           -0.8242    -6.5040    -3.0710 H       
  53 H53           -1.0757    -5.9214    -5.4501 H       
  54 H54           -1.3926    -3.5719    -6.1154 H       
  55 H55           -1.4588    -1.8051    -4.4015 H       
  56 H56           -1.2156    -2.3888    -2.0217 H       
@<TRIPOS>BOND
   1    1    2 ar
   2    1    6 ar
   3    1   21 ar
   4    2    3 ar
   5    2   36 1
   6    3    4 ar
   7    3    8 1
   8    4    5 ar
   9    4    7 1
  10    5    6 ar
  11    5   37 1
  12    6   20 ar
  13    7    9 1
  14    8    9 1
  15    8   11 1
  16    8   12 1
  17    9   38 1
  18    9   39 1
  19   10   11 ar
  20   10   13 1
  21   10   18 ar
  22   11   15 ar
  23   12   13 am
  24   12   14 2
  25   13   19 1
  26   15   16 ar
  27   15   40 1
  28   16   17 ar
  29   16   41 1
  30   17   18 ar
  31   17   42 1
  32   18   43 1
  33   19   24 1
  34   19   30 1
  35   19   44 1
  36   20   23 ar
  37   21   22 ar
  38   22   23 ar
  39   22   45 1
  40   23   46 1
  41   24   25 ar
  42   24   29 ar
  43   25   26 ar
  44   25   47 1
  45   26   27 ar
  46   26   48 1
  47   27   28 ar
  48   27   49 1
  49   28   29 ar
  50   28   50 1
  51   29   51 1
  52   30   31 ar
  53   30   35 ar
  54   31   32 ar
  55   31   52 1
  56   32   33 ar
  57   32   53 1
  58   33   34 ar
  59   33   54 1
  60   34   35 ar
  61   34   55 1
  62   35   56 1

#	End of record

