#	Name: ASD01510070
#	Creating user name:	WinNT
#	Creation time:	15. 06. 2019 19:21

#	Modifying user name:	WinNT
#	Modification time:	15. 06. 2019 19:21

#	Program:	/corina/corina34_cracker 3.40 0067  02.08.2006

@<TRIPOS>MOLECULE
ASD01510070
  44   46    0    0    0
SMALL
NO_CHARGES


@<TRIPOS>ATOM
   1 C1            -0.0178     1.4648     0.0101 C.3     
   2 N2             0.0021    -0.0041     0.0020 N.3     
   3 C3             0.7064    -0.5277     1.1807 C.3     
   4 C4             0.6362    -2.0566     1.1762 C.3     
   5 N5             1.2373    -2.5683    -0.0634 N.3     
   6 C6             0.5329    -2.0447    -1.2421 C.3     
   7 C7             0.6031    -0.5158    -1.2375 C.3     
   8 C8             1.2561    -3.9548    -0.0710 C.ar    
   9 N9             1.7656    -4.5869    -1.1173 N.ar    
  10 C10            1.8004    -5.9085    -1.1597 C.ar    
  11 C11            2.3826    -6.6192    -2.3543 C.3     
  12 C12            1.2924    -6.6340    -0.0857 C.ar    
  13 C13            0.7651    -5.9344     0.9961 C.ar    
  14 N14            0.7689    -4.6119     0.9706 N.ar    
  15 C15            0.2030    -6.6737     2.1829 C.3     
  16 S16            1.3158    -8.3959    -0.0957 S.3     
  17 C17            2.8840    -8.6853     0.6536 C.ar    
  18 N18            3.6252    -7.6502     1.0218 N.ar    
  19 C19            4.8095    -7.8278     1.5886 C.ar    
  20 C20            5.2734    -9.1120     1.7964 C.ar    
  21 C21            4.4704   -10.1835     1.3981 C.ar    
  22 N22            3.2908    -9.9328     0.8400 N.ar    
  23 N23            4.8956   -11.4885     1.5865 N.pl3   
  24 H24            1.0047     1.8421     0.0024 H       
  25 H25           -0.5450     1.8259    -0.8730 H       
  26 H26           -0.5280     1.8163     0.9069 H       
  27 H27            1.7492    -0.2115     1.1515 H       
  28 H28            0.2352    -0.1447     2.0859 H       
  29 H29            1.1828    -2.4483     2.0340 H       
  30 H30           -0.4053    -2.3729     1.2329 H       
  31 H31            1.0041    -2.4277    -2.1472 H       
  32 H32           -0.5098    -2.3609    -1.2128 H       
  33 H33            0.0565    -0.1241    -2.0954 H       
  34 H34            1.6447    -0.1994    -1.2942 H       
  35 H35            3.4490    -6.7804    -2.1970 H       
  36 H36            1.8849    -7.5803    -2.4834 H       
  37 H37            2.2348    -6.0108    -3.2466 H       
  38 H38            0.9937    -6.8418     2.9140 H       
  39 H39           -0.5916    -6.0815     2.6368 H       
  40 H40           -0.1998    -7.6324     1.8563 H       
  41 H41            5.4059    -6.9775     1.8847 H       
  42 H42            6.2355    -9.2839     2.2562 H       
  43 H43            5.7565   -11.6635     1.9976 H       
  44 H44            4.3323   -12.2272     1.3072 H       
@<TRIPOS>BOND
   1    1    2 1
   2    1   24 1
   3    1   25 1
   4    1   26 1
   5    2    3 1
   6    2    7 1
   7    3    4 1
   8    3   27 1
   9    3   28 1
  10    4    5 1
  11    4   29 1
  12    4   30 1
  13    5    6 1
  14    5    8 1
  15    6    7 1
  16    6   31 1
  17    6   32 1
  18    7   33 1
  19    7   34 1
  20    8    9 ar
  21    8   14 ar
  22    9   10 ar
  23   10   11 1
  24   10   12 ar
  25   11   35 1
  26   11   36 1
  27   11   37 1
  28   12   13 ar
  29   12   16 1
  30   13   14 ar
  31   13   15 1
  32   15   38 1
  33   15   39 1
  34   15   40 1
  35   16   17 1
  36   17   18 ar
  37   17   22 ar
  38   18   19 ar
  39   19   20 ar
  40   19   41 1
  41   20   21 ar
  42   20   42 1
  43   21   22 ar
  44   21   23 1
  45   23   43 1
  46   23   44 1

#	End of record

