#	Name: ASD03082035
#	Creating user name:	WinNT
#	Creation time:	15. 06. 2019 20:27

#	Modifying user name:	WinNT
#	Modification time:	15. 06. 2019 20:27

#	Program:	/corina/corina34_cracker 3.40 0067  02.08.2006

@<TRIPOS>MOLECULE
ASD03082035
  68   71    0    0    0
SMALL
NO_CHARGES


@<TRIPOS>ATOM
   1 C1            -0.0187     1.5261     0.0104 C.3     
   2 C2             0.0021    -0.0041     0.0020 C.3     
   3 N3             0.7064    -0.4787    -1.1959 N.3     
   4 C4             2.1034    -0.0262    -1.2048 C.3     
   5 C5             2.1454     1.5033    -1.2324 C.3     
   6 C6             1.4196     2.0513    -0.0005 C.3     
   7 C7             3.6009     1.9747    -1.2194 C.3     
   8 O8             3.6433     3.4188    -1.3648 O.3     
   9 C9             4.8597     3.9971    -1.3728 C.2     
  10 C10            4.9803     5.4663    -1.5175 C.2     
  11 O11            5.8573     3.3142    -1.2614 O.2     
  12 C12            6.2182     6.0188    -1.5219 C.2     
  13 C13            6.3290     7.4792    -1.6843 C.2     
  14 C14            5.1010     8.1777    -2.1136 C.ar    
  15 C15            3.8884     7.4673    -2.0730 C.ar    
  16 O16            3.8613     6.1928    -1.6439 O.3     
  17 O17            7.3713     8.0747    -1.4764 O.2     
  18 C18            5.1293     9.5011    -2.5492 C.ar    
  19 C19            3.9687    10.1077    -2.9437 C.ar    
  20 C20            2.7679     9.4125    -2.9126 C.ar    
  21 C21            2.7208     8.1040    -2.4827 C.ar    
  22 C22            0.6260    -1.9412    -1.3090 C.3     
  23 C23           -0.8267    -2.3547    -1.5531 C.3     
  24 C24           -0.9104    -3.8779    -1.6709 C.3     
  25 C25           -2.3631    -4.2914    -1.9150 C.3     
  26 C26           -2.4468    -5.8146    -2.0328 C.3     
  27 O27           -3.8036    -6.2009    -2.2608 O.3     
  28 C28           -4.0534    -7.5313    -2.3899 C.ar    
  29 C29           -5.3483    -7.9754    -2.6126 C.ar    
  30 C30           -5.6020    -9.3269    -2.7437 C.ar    
  31 C31           -4.5617   -10.2397    -2.6531 C.ar    
  32 C32           -3.2667    -9.7956    -2.4312 C.ar    
  33 C33           -3.0123    -8.4438    -2.3044 C.ar    
  34 O34           -4.8116   -11.5703    -2.7813 O.3     
  35 C35           -3.6931   -12.4534    -2.6770 C.3     
  36 H36           -0.5449     1.8878    -0.8730 H       
  37 H37           -0.5279     1.8782     0.9076 H       
  38 H38            0.5163    -0.3652     0.8927 H       
  39 H39           -1.0206    -0.3811    -0.0047 H       
  40 H40            2.6078    -0.3873    -0.3085 H       
  41 H41            2.6069    -0.4194    -2.0879 H       
  42 H42            1.6532     1.8646    -2.1353 H       
  43 H43            1.4094     3.1406    -0.0383 H       
  44 H44            1.9345     1.7220     0.9021 H       
  45 H45            4.0664     1.6907    -0.2756 H       
  46 H46            4.1405     1.5104    -2.0449 H       
  47 H47            7.0997     5.4050    -1.4091 H       
  48 H48            6.0622    10.0447    -2.5749 H       
  49 H49            3.9867    11.1335    -3.2810 H       
  50 H50            1.8592     9.9030    -3.2289 H       
  51 H51            1.7799     7.5742    -2.4634 H       
  52 H52            1.2439    -2.2756    -2.1424 H       
  53 H53            0.9834    -2.3972    -0.3858 H       
  54 H54           -1.4446    -2.0203    -0.7198 H       
  55 H55           -1.1841    -1.8987    -2.4764 H       
  56 H56           -0.2925    -4.2123    -2.5043 H       
  57 H57           -0.5530    -4.3339    -0.7477 H       
  58 H58           -2.9810    -3.9570    -1.0816 H       
  59 H59           -2.7205    -3.8354    -2.8382 H       
  60 H60           -1.8289    -6.1491    -2.8661 H       
  61 H61           -2.0894    -6.2706    -1.1095 H       
  62 H62           -6.1583    -7.2646    -2.6832 H       
  63 H63           -6.6104    -9.6727    -2.9165 H       
  64 H64           -2.4566   -10.5064    -2.3606 H       
  65 H65           -2.0039    -8.0979    -2.1317 H       
  66 H66           -3.2272   -12.3358    -1.6986 H       
  67 H67           -4.0305   -13.4829    -2.7974 H       
  68 H68           -2.9683   -12.2152    -3.4555 H       
@<TRIPOS>BOND
   1    1    2 1
   2    1    6 1
   3    1   36 1
   4    1   37 1
   5    2    3 1
   6    2   38 1
   7    2   39 1
   8    3    4 1
   9    3   22 1
  10    4    5 1
  11    4   40 1
  12    4   41 1
  13    5    6 1
  14    5    7 1
  15    5   42 1
  16    6   43 1
  17    6   44 1
  18    7    8 1
  19    7   45 1
  20    7   46 1
  21    8    9 1
  22    9   10 1
  23    9   11 2
  24   10   12 2
  25   10   16 1
  26   12   13 1
  27   12   47 1
  28   13   14 1
  29   13   17 2
  30   14   15 ar
  31   14   18 ar
  32   15   16 1
  33   15   21 ar
  34   18   19 ar
  35   18   48 1
  36   19   20 ar
  37   19   49 1
  38   20   21 ar
  39   20   50 1
  40   21   51 1
  41   22   23 1
  42   22   52 1
  43   22   53 1
  44   23   24 1
  45   23   54 1
  46   23   55 1
  47   24   25 1
  48   24   56 1
  49   24   57 1
  50   25   26 1
  51   25   58 1
  52   25   59 1
  53   26   27 1
  54   26   60 1
  55   26   61 1
  56   27   28 1
  57   28   29 ar
  58   28   33 ar
  59   29   30 ar
  60   29   62 1
  61   30   31 ar
  62   30   63 1
  63   31   32 ar
  64   31   34 1
  65   32   33 ar
  66   32   64 1
  67   33   65 1
  68   34   35 1
  69   35   66 1
  70   35   67 1
  71   35   68 1

#	End of record

