#	Name: ASD01816930
#	Creating user name:	WinNT
#	Creation time:	15. 06. 2019 19:36

#	Modifying user name:	WinNT
#	Modification time:	15. 06. 2019 19:36

#	Program:	/corina/corina34_cracker 3.40 0067  02.08.2006

@<TRIPOS>MOLECULE
ASD01816930
  64   69    0    0    0
SMALL
NO_CHARGES


@<TRIPOS>ATOM
   1 C1            -0.0159     1.3197     0.0093 C.ar    
   2 N2             0.0021    -0.0041     0.0020 N.ar    
   3 C3             1.1158    -0.6999    -0.0123 C.ar    
   4 C4             2.3544    -0.0408    -0.0206 C.ar    
   5 C5             2.3621     1.3769    -0.0130 C.ar    
   6 C6             1.1366     2.0526     0.0022 C.ar    
   7 C7             3.5723    -0.7485    -0.0364 C.ar    
   8 C8             4.7597    -0.0948    -0.0447 C.ar    
   9 C9             4.8218     1.3071    -0.0373 C.ar    
  10 C10            3.6424     2.0744    -0.0220 C.ar    
  11 C11            6.1046     2.0237    -0.0463 C.2     
  12 N12            6.0637     3.3763    -0.0386 N.am    
  13 C13            4.8746     4.0288    -0.0229 C.2     
  14 N14            3.7274     3.4151    -0.0161 N.2     
  15 O15            7.1639     1.4234    -0.0596 O.2     
  16 C16            3.5548    -2.2554    -0.0438 C.3     
  17 C17            3.4108    -2.7491    -1.4603 C.ar    
  18 C18            4.5388    -2.9882    -2.2246 C.ar    
  19 C19            4.4131    -3.4404    -3.5224 C.ar    
  20 C20            3.1464    -3.6567    -4.0626 C.ar    
  21 C21            2.0133    -3.4145    -3.2875 C.ar    
  22 C22            2.1514    -2.9670    -1.9894 C.ar    
  23 C23            7.3129     4.1416    -0.0469 C.3     
  24 C24            7.3587     5.0297    -1.2920 C.3     
  25 C25            7.3835     5.0163     1.2064 C.3     
  26 C26            8.6881     5.8156     1.1977 C.3     
  27 C27            8.7339     6.7036    -0.0474 C.3     
  28 C28            8.6633     5.8289    -1.3006 C.3     
  29 O29            7.3408     4.1869     2.3692 O.3     
  30 C30            3.0048    -4.1420    -5.4563 C.ar    
  31 C31            1.9646    -5.0190    -5.7942 C.ar    
  32 N32            1.8457    -5.4467    -7.0414 N.ar    
  33 C33            2.7063    -5.0468    -7.9633 C.ar    
  34 C34            3.7326    -4.1819    -7.6312 C.ar    
  35 N35            3.8594    -3.7436    -6.3913 N.ar    
  36 O36            1.0840    -5.4278    -4.8474 O.3     
  37 C37            0.0504    -6.3216    -5.2655 C.3     
  38 H38           -0.9660     1.8331     0.0165 H       
  39 H39            1.0783    -1.7793    -0.0174 H       
  40 H40            1.1028     3.1320     0.0080 H       
  41 H41            5.6770    -0.6647    -0.0568 H       
  42 H42            4.8803     5.1087    -0.0168 H       
  43 H43            4.4862    -2.6316     0.3792 H       
  44 H44            2.7148    -2.6119     0.5524 H       
  45 H45            5.5197    -2.8202    -1.8050 H       
  46 H46            5.2945    -3.6260    -4.1184 H       
  47 H47            1.0294    -3.5804    -3.7009 H       
  48 H48            1.2743    -2.7794    -1.3878 H       
  49 H49            8.1595     3.4551    -0.0590 H       
  50 H50            7.3084     4.4065    -2.1848 H       
  51 H51            6.5121     5.7162    -1.2799 H       
  52 H52            6.5369     5.7028     1.2184 H       
  53 H53            8.7384     6.4387     2.0905 H       
  54 H54            9.5347     5.1291     1.1856 H       
  55 H55            7.8873     7.3901    -0.0353 H       
  56 H56            9.6633     7.2730    -0.0535 H       
  57 H57            9.5099     5.1424    -1.3127 H       
  58 H58            8.6959     6.4616    -2.1876 H       
  59 H59            7.3816     4.6756     3.2026 H       
  60 H60            2.6068    -5.3978    -8.9798 H       
  61 H61            4.4313    -3.8603    -8.3894 H       
  62 H62           -0.5826    -6.5690    -4.4133 H       
  63 H63           -0.5517    -5.8445    -6.0388 H       
  64 H64            0.4969    -7.2329    -5.6632 H       
@<TRIPOS>BOND
   1    1    2 ar
   2    1    6 ar
   3    1   38 1
   4    2    3 ar
   5    3    4 ar
   6    3   39 1
   7    4    5 ar
   8    4    7 ar
   9    5    6 ar
  10    5   10 ar
  11    6   40 1
  12    7    8 ar
  13    7   16 1
  14    8    9 ar
  15    8   41 1
  16    9   10 ar
  17    9   11 1
  18   10   14 1
  19   11   12 am
  20   11   15 2
  21   12   13 1
  22   12   23 1
  23   13   14 2
  24   13   42 1
  25   16   17 1
  26   16   43 1
  27   16   44 1
  28   17   18 ar
  29   17   22 ar
  30   18   19 ar
  31   18   45 1
  32   19   20 ar
  33   19   46 1
  34   20   21 ar
  35   20   30 1
  36   21   22 ar
  37   21   47 1
  38   22   48 1
  39   23   24 1
  40   23   25 1
  41   23   49 1
  42   24   28 1
  43   24   50 1
  44   24   51 1
  45   25   26 1
  46   25   29 1
  47   25   52 1
  48   26   27 1
  49   26   53 1
  50   26   54 1
  51   27   28 1
  52   27   55 1
  53   27   56 1
  54   28   57 1
  55   28   58 1
  56   29   59 1
  57   30   31 ar
  58   30   35 ar
  59   31   32 ar
  60   31   36 1
  61   32   33 ar
  62   33   34 ar
  63   33   60 1
  64   34   35 ar
  65   34   61 1
  66   36   37 1
  67   37   62 1
  68   37   63 1
  69   37   64 1

#	End of record

