#	Name: ASD01901612
#	Creating user name:	WinNT
#	Creation time:	15. 06. 2019 19:54

#	Modifying user name:	WinNT
#	Modification time:	15. 06. 2019 19:54

#	Program:	/corina/corina34_cracker 3.40 0067  02.08.2006

@<TRIPOS>MOLECULE
ASD01901612
  49   53    0    0    0
SMALL
NO_CHARGES


@<TRIPOS>ATOM
   1 C1             0.4008     1.2187    -1.2843 C.3     
   2 O2             0.3349    -0.1972    -1.1027 O.3     
   3 C3            -0.8767    -0.7228    -0.7997 C.ar    
   4 N4            -1.9291     0.0627    -0.6899 N.ar    
   5 C5            -3.1389    -0.3965    -0.3954 C.ar    
   6 C6            -3.3748    -1.7194    -0.1851 C.ar    
   7 C7            -2.2996    -2.6253    -0.2845 C.ar    
   8 C8            -2.4650    -4.0002    -0.0822 C.ar    
   9 C9            -1.3722    -4.8364    -0.1940 C.ar    
  10 N10           -1.5287    -6.2076     0.0061 N.pl3   
  11 C11           -0.4672    -6.9665     0.5089 C.2     
  12 N12            0.6809    -6.5034     0.9267 N.2     
  13 N13            1.4939    -7.5566     1.3581 N.pl3   
  14 H14            2.3925    -7.4651     1.7117 H       
  15 C15            0.8184    -8.7381     1.2016 C.ar    
  16 C16            1.1307   -10.0726     1.4586 C.ar    
  17 C17            0.1814   -11.0331     1.1699 C.ar    
  18 C18           -1.0432   -10.6504     0.6382 C.ar    
  19 N19           -1.3217    -9.3886     0.4019 N.ar    
  20 C20           -0.4456    -8.4225     0.6675 C.ar    
  21 C21           -0.1085    -4.3215    -0.5068 C.ar    
  22 C22            0.0742    -2.9882    -0.7074 C.ar    
  23 C23           -1.0164    -2.1126    -0.6065 C.ar    
  24 C24            1.8381     1.6237    -1.6177 C.3     
  25 C25            2.2355     1.0327    -2.9739 C.3     
  26 C26            3.6453     1.5076    -3.3353 C.3     
  27 O27            3.6749     2.9362    -3.3550 O.3     
  28 C28            3.3579     3.5437    -2.1009 C.3     
  29 C29            1.9365     3.1506    -1.6899 C.3     
  30 H30           -0.2580     1.5111    -2.1019 H       
  31 H31            0.0861     1.7176    -0.3677 H       
  32 H32           -3.9602     0.3007    -0.3201 H       
  33 H33           -4.3681    -2.0694     0.0541 H       
  34 H34           -3.4376    -4.4029     0.1593 H       
  35 H35           -2.3739    -6.6349    -0.2035 H       
  36 H36            2.0897   -10.3477     1.8722 H       
  37 H37            0.3903   -12.0762     1.3562 H       
  38 H38           -1.7816   -11.4059     0.4140 H       
  39 H39            0.7337    -4.9924    -0.5897 H       
  40 H40            1.0553    -2.6061    -0.9481 H       
  41 H41            2.5105     1.2511    -0.8450 H       
  42 H42            2.2216    -0.0556    -2.9152 H       
  43 H43            1.5320     1.3663    -3.7368 H       
  44 H44            4.3542     1.1395    -2.5936 H       
  45 H45            3.9167     1.1249    -4.3192 H       
  46 H46            4.0630     3.2022    -1.3431 H       
  47 H47            3.4223     4.6276    -2.1955 H       
  48 H48            1.2270     3.5269    -2.4269 H       
  49 H49            1.7088     3.5769    -0.7129 H       
@<TRIPOS>BOND
   1    1    2 1
   2    1   24 1
   3    1   30 1
   4    1   31 1
   5    2    3 1
   6    3   23 ar
   7    3    4 ar
   8    4    5 ar
   9    5    6 ar
  10    5   32 1
  11    6    7 ar
  12    6   33 1
  13    7   23 ar
  14    7    8 ar
  15    8    9 ar
  16    8   34 1
  17    9   10 1
  18    9   21 ar
  19   10   11 1
  20   10   35 1
  21   11   20 1
  22   11   12 2
  23   12   13 1
  24   13   14 1
  25   13   15 1
  26   15   20 ar
  27   15   16 ar
  28   16   17 ar
  29   16   36 1
  30   17   18 ar
  31   17   37 1
  32   18   19 ar
  33   18   38 1
  34   19   20 ar
  35   21   22 ar
  36   21   39 1
  37   22   23 ar
  38   22   40 1
  39   24   29 1
  40   24   25 1
  41   24   41 1
  42   25   26 1
  43   25   42 1
  44   25   43 1
  45   26   27 1
  46   26   44 1
  47   26   45 1
  48   27   28 1
  49   28   29 1
  50   28   46 1
  51   28   47 1
  52   29   48 1
  53   29   49 1

#	End of record

