#	Name: ASD03330983
#	Creating user name:	WinNT
#	Creation time:	15. 06. 2019 20:38

#	Modifying user name:	WinNT
#	Modification time:	15. 06. 2019 20:38

#	Program:	/corina/corina34_cracker 3.40 0067  02.08.2006

@<TRIPOS>MOLECULE
ASD03330983
  77   79    0    0    0
SMALL
NO_CHARGES


@<TRIPOS>ATOM
   1 N1             0.3819     0.8720     0.9769 N.pl3   
   2 C2             0.2908    -0.4785     0.9425 C.2     
   3 C3             1.4398    -1.4412     1.0894 C.3     
   4 N4             2.2597    -1.0423     2.2440 N.3     
   5 C5             3.3005    -0.0907     1.8500 C.3     
   6 C6             2.8106     0.8159     0.7242 C.3     
   7 C7             1.6115     1.6374     1.2045 C.3     
   8 C8            -0.8623     1.3739     0.7761 C.2     
   9 N9            -1.7002     0.3855     0.6399 N.2     
  10 C10           -1.0190    -0.7860     0.7406 C.2     
  11 C11           -1.5928    -2.1397     0.6472 C.2     
  12 O12           -0.8728    -3.1141     0.7536 O.2     
  13 N13           -2.9157    -2.2983     0.4439 N.am    
  14 C14            2.8433    -2.2166     2.9060 C.3     
  15 N15           -3.0134     5.0036     0.4322 N.am    
  16 C16           -2.1580     4.6563    -0.7107 C.3     
  17 C17           -1.8299     3.1614    -0.6447 C.3     
  18 C18           -1.2177     2.8373     0.7200 C.3     
  19 C19           -2.2279     3.1593     1.8236 C.3     
  20 C20           -2.5605     4.6542     1.7855 C.3     
  21 S21           -4.4575     5.7803     0.2000 S.o2    
  22 O22           -4.7852     5.5126    -1.1565 O.2     
  23 O23           -5.2814     5.3122     1.2589 O.2     
  24 C24           -4.0677     7.5375     0.4258 C.3     
  25 C25           -2.9749     7.9486    -0.5628 C.3     
  26 C26           -5.3236     8.3747     0.1751 C.3     
  27 C27           -4.7609    -3.5954    -0.4516 C.2     
  28 C28           -3.4864    -3.6444     0.3510 C.3     
  29 C29           -3.7884    -4.1683     1.7564 C.3     
  30 C30           -4.6816    -3.1678     2.4926 C.3     
  31 O31           -5.4121    -2.5731    -0.4936 O.2     
  32 N32           -5.1772    -4.6876    -1.1225 N.am    
  33 C33           -6.3533    -4.6088    -1.9925 C.3     
  34 C34           -4.5071    -5.5152     1.6550 C.3     
  35 C35           -2.4786    -4.3459     2.5269 C.3     
  36 H36            1.0533    -2.4481     1.2476 H       
  37 H37            2.0491    -1.4217     0.1859 H       
  38 H38            3.5712     0.5210     2.7107 H       
  39 H39            4.1789    -0.6401     1.5113 H       
  40 H40            3.6144     1.4887     0.4251 H       
  41 H41            2.5136     0.2059    -0.1289 H       
  42 H42            1.5656     2.5741     0.6489 H       
  43 H43            1.7174     1.8488     2.2686 H       
  44 H44           -3.4900    -1.5211     0.3590 H       
  45 H45            3.4738    -2.7562     2.1993 H       
  46 H46            3.4444    -1.8933     3.7559 H       
  47 H47            2.0447    -2.8718     3.2541 H       
  48 H48           -2.6838     4.8743    -1.6403 H       
  49 H49           -1.2355     5.2352    -0.6659 H       
  50 H50           -2.7432     2.5821    -0.7806 H       
  51 H51           -1.1186     2.9099    -1.4315 H       
  52 H52           -0.3181     3.4353     0.8657 H       
  53 H53           -3.1375     2.5801     1.6645 H       
  54 H54           -1.8000     2.9064     2.7936 H       
  55 H55           -1.6709     5.2329     2.0339 H       
  56 H56           -3.3520     4.8708     2.5030 H       
  57 H57           -3.7175     7.7039     1.4445 H       
  58 H58           -2.8108     9.0242    -0.4964 H       
  59 H59           -2.0503     7.4245    -0.3210 H       
  60 H60           -3.2849     7.6902    -1.5753 H       
  61 H61           -6.1021     8.0818     0.8794 H       
  62 H62           -5.0894     9.4306     0.3108 H       
  63 H63           -5.6738     8.2082    -0.8436 H       
  64 H64           -2.7738    -4.3080    -0.1388 H       
  65 H65           -5.6148    -3.0413     1.9437 H       
  66 H66           -4.8968    -3.5411     3.4939 H       
  67 H67           -4.1696    -2.2083     2.5649 H       
  68 H68           -4.6981    -5.5258    -1.0295 H       
  69 H69           -7.2219    -4.3148    -1.4034 H       
  70 H70           -6.1778    -3.8702    -2.7747 H       
  71 H71           -6.5352    -5.5828    -2.4467 H       
  72 H72           -3.9137    -6.1989     1.0479 H       
  73 H73           -4.6362    -5.9342     2.6529 H       
  74 H74           -5.4834    -5.3722     1.1919 H       
  75 H75           -1.9666    -3.3863     2.5992 H       
  76 H76           -2.6938    -4.7192     3.5282 H       
  77 H77           -1.8423    -5.0587     2.0024 H       
@<TRIPOS>BOND
   1    1    2 1
   2    1    7 1
   3    1    8 1
   4    2    3 1
   5    2   10 2
   6    3    4 1
   7    3   36 1
   8    3   37 1
   9    4    5 1
  10    4   14 1
  11    5    6 1
  12    5   38 1
  13    5   39 1
  14    6    7 1
  15    6   40 1
  16    6   41 1
  17    7   42 1
  18    7   43 1
  19    8    9 2
  20    8   18 1
  21    9   10 1
  22   10   11 1
  23   11   12 2
  24   11   13 am
  25   13   28 1
  26   13   44 1
  27   14   45 1
  28   14   46 1
  29   14   47 1
  30   15   16 1
  31   15   20 1
  32   15   21 am
  33   16   17 1
  34   16   48 1
  35   16   49 1
  36   17   18 1
  37   17   50 1
  38   17   51 1
  39   18   19 1
  40   18   52 1
  41   19   20 1
  42   19   53 1
  43   19   54 1
  44   20   55 1
  45   20   56 1
  46   21   22 2
  47   21   23 2
  48   21   24 1
  49   24   25 1
  50   24   26 1
  51   24   57 1
  52   25   58 1
  53   25   59 1
  54   25   60 1
  55   26   61 1
  56   26   62 1
  57   26   63 1
  58   27   31 2
  59   27   32 am
  60   27   28 1
  61   28   29 1
  62   28   64 1
  63   29   30 1
  64   29   34 1
  65   29   35 1
  66   30   65 1
  67   30   66 1
  68   30   67 1
  69   32   33 1
  70   32   68 1
  71   33   69 1
  72   33   70 1
  73   33   71 1
  74   34   72 1
  75   34   73 1
  76   34   74 1
  77   35   75 1
  78   35   76 1
  79   35   77 1

#	End of record

