#	Name: ASD07930569
#	Creating user name:	WinNT
#	Creation time:	15. 06. 2019 21:12

#	Modifying user name:	WinNT
#	Modification time:	15. 06. 2019 21:12

#	Program:	/corina/corina34_cracker 3.40 0067  02.08.2006

@<TRIPOS>MOLECULE
ASD07930569
  48   50    0    0    0
SMALL
NO_CHARGES


@<TRIPOS>ATOM
   1 C1            -0.0502     1.4821    -0.0094 C.3     
   2 N2             0.7773    -0.3946    -2.1782 N.2     
   3 N3            -0.8979    -1.7688    -1.3026 N.pl3   
   4 C4            -0.9127    -2.8082    -0.2679 C.3     
   5 C5            -1.2240    -2.1653     1.0907 C.3     
   6 S6             0.0078    -0.8612     1.4011 S.o2    
   7 N7            -0.0234     0.0174    -0.0143 N.am    
   8 C8            -0.0231    -0.7068    -1.1980 C.2     
   9 C9             0.4557    -3.4900    -0.2090 C.3     
  10 C10           -1.9712    -3.8296    -0.5958 C.ar    
  11 N11           -2.9586    -4.0401     0.2534 N.ar    
  12 C12           -3.9096    -4.9270     0.0069 C.ar    
  13 C13           -3.8971    -5.6721    -1.1665 C.ar    
  14 C14           -2.8750    -5.4754    -2.0785 C.ar    
  15 C15           -1.8985    -4.5308    -1.7859 C.ar    
  16 O16           -0.4553     0.0438     2.3940 O.2     
  17 O17            1.3184    -1.4077     1.4540 O.2     
  18 F18           -0.8834    -4.3078    -2.6491 F       
  19 N19           -4.9340    -5.1160     0.9335 N.am    
  20 C20           -4.8976    -4.4748     2.1184 C.2     
  21 O21           -3.9275    -3.8063     2.4183 O.2     
  22 C22           -6.0365    -4.5843     3.0527 C.ar    
  23 C23           -5.9919    -3.9167     4.2796 C.ar    
  24 C24           -8.1301    -5.4369     3.5160 C.ar    
  25 N25           -7.0962    -5.3123     2.7163 N.ar    
  26 C26           -7.0682    -4.0284     5.1469 C.ar    
  27 C27           -8.1542    -4.8048     4.7577 C.ar    
  28 O28           -9.2283    -4.9410     5.5761 O.3     
  29 C29          -10.3040    -5.7552     5.1046 C.3     
  30 H30          -10.6943    -5.3393     4.1757 H       
  31 H31           -9.9419    -6.7676     4.9255 H       
  32 H32          -11.0961    -5.7796     5.8529 H       
  33 F33           -4.9151    -3.1734     4.6162 F       
  34 H34            0.9706     1.8643    -0.0191 H       
  35 H35           -0.5801     1.8388    -0.8927 H       
  36 H36           -0.5611     1.8332     0.8872 H       
  37 H37            0.7641    -0.9119    -2.9987 H       
  38 H38           -1.4993    -1.8299    -2.0612 H       
  39 H39           -2.2231    -1.7299     1.0709 H       
  40 H40           -1.1667    -2.9193     1.8757 H       
  41 H41            1.2200    -2.7506     0.0301 H       
  42 H42            0.4440    -4.2623     0.5601 H       
  43 H43            0.6779    -3.9428    -1.1753 H       
  44 H44           -4.6746    -6.3953    -1.3636 H       
  45 H45           -2.8391    -6.0402    -2.9984 H       
  46 H46           -5.6729    -5.7090     0.7254 H       
  47 H47           -8.9730    -6.0373     3.2073 H       
  48 H48           -7.0629    -3.5246     6.1022 H       
@<TRIPOS>BOND
   1    1    7 1
   2    1   34 1
   3    1   35 1
   4    1   36 1
   5    2    8 2
   6    2   37 1
   7    3    4 1
   8    3    8 1
   9    3   38 1
  10    4    5 1
  11    4    9 1
  12    4   10 1
  13    5    6 1
  14    5   39 1
  15    5   40 1
  16    6    7 am
  17    6   16 2
  18    6   17 2
  19    7    8 1
  20    9   41 1
  21    9   42 1
  22    9   43 1
  23   10   11 ar
  24   10   15 ar
  25   11   12 ar
  26   12   13 ar
  27   12   19 1
  28   13   14 ar
  29   13   44 1
  30   14   15 ar
  31   14   45 1
  32   15   18 1
  33   19   20 am
  34   19   46 1
  35   20   21 2
  36   20   22 1
  37   22   23 ar
  38   22   25 ar
  39   23   26 ar
  40   23   33 1
  41   24   25 ar
  42   24   27 ar
  43   24   47 1
  44   26   27 ar
  45   26   48 1
  46   27   28 1
  47   28   29 1
  48   29   30 1
  49   29   31 1
  50   29   32 1

#	End of record

