#	Name: ASD01916141
#	Creating user name:	WinNT
#	Creation time:	15. 06. 2019 20:06

#	Modifying user name:	WinNT
#	Modification time:	15. 06. 2019 20:06

#	Program:	/corina/corina34_cracker 3.40 0067  02.08.2006

@<TRIPOS>MOLECULE
ASD01916141
  46   49    0    0    0
SMALL
NO_CHARGES


@<TRIPOS>ATOM
   1 C1             2.3258     1.3185    -1.1429 C.ar    
   2 C2             2.0444    -0.0288    -1.0036 C.ar    
   3 C3             0.7266    -0.4590    -0.9541 C.ar    
   4 C4            -0.3060     0.4631    -1.0443 C.ar    
   5 C5            -0.0209     1.8080    -1.1833 C.ar    
   6 C6             1.2922     2.2369    -1.2270 C.ar    
   7 O7             0.4474    -1.7819    -0.8178 O.3     
   8 C8            -0.9320    -2.1527    -0.7740 C.3     
   9 C9            -1.0457    -3.6476    -0.6208 C.2     
  10 C10            0.0242    -4.5475    -0.5335 C.2     
  11 N11           -2.1622    -4.3284    -0.5408 N.2     
  12 N12           -1.8391    -5.6809    -0.4018 N.pl3   
  13 C13           -0.4900    -5.7853    -0.4056 C.2     
  14 C14           -2.7672    -6.8066    -0.2640 C.3     
  15 C15           -2.0342    -8.1098    -0.6002 C.3     
  16 N16           -0.7310    -8.1224     0.0815 N.am    
  17 C17            0.2568    -7.0930    -0.2897 C.3     
  18 C18           -0.4480    -9.0460     1.0215 C.2     
  19 C19            0.9079    -9.1137     1.6067 C.ar    
  20 O20           -1.3077    -9.8232     1.3881 O.2     
  21 C21            2.0393    -9.1227     0.7823 C.ar    
  22 C22            3.2859    -9.1867     1.3800 C.ar    
  23 C23            3.3734    -9.2391     2.7594 C.ar    
  24 N24            2.2893    -9.2296     3.5116 N.ar    
  25 C25            1.0819    -9.1639     2.9905 C.ar    
  26 F26            3.6087     1.7391    -1.1913 F       
  27 C27           -0.1230    -9.1555     3.8956 C.3     
  28 H28            2.8498    -0.7450    -0.9339 H       
  29 H29           -1.3325     0.1297    -1.0062 H       
  30 H30           -0.8252     2.5253    -1.2535 H       
  31 H31            1.5127     3.2885    -1.3353 H       
  32 H32           -1.4131    -1.6631     0.0727 H       
  33 H33           -1.4207    -1.8439    -1.6981 H       
  34 H34            1.0735    -4.2939    -0.5634 H       
  35 H35           -3.1364    -6.8506     0.7607 H       
  36 H36           -3.6052    -6.6734    -0.9481 H       
  37 H37           -2.6290    -8.9592    -0.2643 H       
  38 H38           -1.8820    -8.1743    -1.6776 H       
  39 H39            0.7131    -7.3436    -1.2473 H       
  40 H40            1.0241    -7.0188     0.4809 H       
  41 H41            1.9418    -9.0812    -0.2925 H       
  42 H42            4.1809    -9.1959     0.7758 H       
  43 H43            4.3449    -9.2891     3.2284 H       
  44 H44           -0.4364    -8.1269     4.0738 H       
  45 H45           -0.9362    -9.7065     3.4231 H       
  46 H46            0.1322    -9.6272     4.8446 H       
@<TRIPOS>BOND
   1    1    2 ar
   2    1   26 1
   3    1    6 ar
   4    2    3 ar
   5    2   28 1
   6    3    4 ar
   7    3    7 1
   8    4    5 ar
   9    4   29 1
  10    5    6 ar
  11    5   30 1
  12    6   31 1
  13    7    8 1
  14    8    9 1
  15    8   32 1
  16    8   33 1
  17    9   10 1
  18    9   11 2
  19   10   13 2
  20   10   34 1
  21   11   12 1
  22   12   13 1
  23   12   14 1
  24   13   17 1
  25   14   15 1
  26   14   35 1
  27   14   36 1
  28   15   16 1
  29   15   37 1
  30   15   38 1
  31   16   17 1
  32   16   18 am
  33   17   39 1
  34   17   40 1
  35   18   19 1
  36   18   20 2
  37   19   21 ar
  38   19   25 ar
  39   21   22 ar
  40   21   41 1
  41   22   23 ar
  42   22   42 1
  43   23   24 ar
  44   23   43 1
  45   24   25 ar
  46   25   27 1
  47   27   44 1
  48   27   45 1
  49   27   46 1

#	End of record

