#	Name: ASD01948298
#	Creating user name:	WinNT
#	Creation time:	15. 06. 2019 20:14

#	Modifying user name:	WinNT
#	Modification time:	15. 06. 2019 20:14

#	Program:	/corina/corina34_cracker 3.40 0067  02.08.2006

@<TRIPOS>MOLECULE
ASD01948298
  50   52    0    0    0
SMALL
NO_CHARGES


@<TRIPOS>ATOM
   1 C1             2.3458     8.2753     0.0198 C.ar    
   2 C2             2.9389     8.6547    -1.1714 C.ar    
   3 C3             3.8093     7.7966    -1.8183 C.ar    
   4 C4             4.0901     6.5565    -1.2774 C.ar    
   5 C5             3.4979     6.1714    -0.0824 C.ar    
   6 C6             2.6225     7.0363     0.5669 C.ar    
   7 N7             3.9910     3.1088    -1.0587 N.am    
   8 C8             4.5702     4.0207    -0.2259 C.2     
   9 N9             3.7800     4.9163     0.4673 N.pl3   
  10 C10            4.7410     2.2264    -1.7443 C.2     
  11 C11            6.1344     2.2293    -1.6139 C.2     
  12 C12            6.7387     3.1446    -0.7751 C.2     
  13 C13            5.9433     4.0532    -0.0714 C.2     
  14 N14            6.5367     4.9956     0.7888 N.am    
  15 I15            2.5169    10.5333    -1.9972 I       
  16 F16            2.0442     6.6659     1.7303 F       
  17 C17            2.5334     3.0858    -1.2041 C.3     
  18 S18            8.1851     5.1453     0.8420 S.o2    
  19 O19            8.5911     5.0340    -0.5152 O.2     
  20 O20            8.4047     6.3417     1.5766 O.2     
  21 C21            8.7401     3.7036     1.7927 C.3     
  22 C22            8.0486     3.4303     3.1299 C.3     
  23 C23            7.7691     2.5287     1.9257 C.3     
  24 C24           10.2319     3.3796     1.6896 C.3     
  25 C25           10.5979     3.1221     0.2265 C.3     
  26 O26           10.0041     1.8958    -0.2043 O.3     
  27 O27            4.2020     1.4173    -2.4850 O.2     
  28 C28           12.1189     3.0278     0.0903 C.3     
  29 O29           12.4668     2.9038    -1.2901 O.3     
  30 F30            6.8836     1.3415    -2.3036 F       
  31 H31            1.6697     8.9493     0.5247 H       
  32 H32            4.2701     8.0960    -2.7481 H       
  33 H33            4.7695     5.8871    -1.7841 H       
  34 H34            3.4205     4.6752     1.3354 H       
  35 H35            7.8129     3.1584    -0.6643 H       
  36 H36            5.9803     5.5575     1.3505 H       
  37 H37            2.2320     3.8123    -1.9587 H       
  38 H38            2.2146     2.0896    -1.5110 H       
  39 H39            2.0691     3.3382    -0.2507 H       
  40 H40            8.6563     3.0193     3.9360 H       
  41 H41            7.2602     4.1168     3.4383 H       
  42 H42            6.7968     2.6220     1.4420 H       
  43 H43            8.1930     1.5246     1.9397 H       
  44 H44           10.8133     4.2209     2.0669 H       
  45 H45           10.4524     2.4911     2.2811 H       
  46 H46           10.2280     3.9412    -0.3902 H       
  47 H47           10.2885     1.1221     0.3014 H       
  48 H48           12.5770     3.9275     0.5011 H       
  49 H49           12.4791     2.1554     0.6356 H       
  50 H50           13.4180     2.8390    -1.4518 H       
@<TRIPOS>BOND
   1    1    2 ar
   2    1    6 ar
   3    1   31 1
   4    2    3 ar
   5    2   15 1
   6    3    4 ar
   7    3   32 1
   8    4    5 ar
   9    4   33 1
  10    5    6 ar
  11    5    9 1
  12    6   16 1
  13    7    8 1
  14    7   10 am
  15    7   17 1
  16    8    9 1
  17    8   13 2
  18    9   34 1
  19   10   11 1
  20   10   27 2
  21   11   12 2
  22   11   30 1
  23   12   13 1
  24   12   35 1
  25   13   14 1
  26   14   18 am
  27   14   36 1
  28   17   37 1
  29   17   38 1
  30   17   39 1
  31   18   19 2
  32   18   20 2
  33   18   21 1
  34   21   22 1
  35   21   24 1
  36   21   23 1
  37   22   23 1
  38   22   40 1
  39   22   41 1
  40   23   42 1
  41   23   43 1
  42   24   25 1
  43   24   44 1
  44   24   45 1
  45   25   26 1
  46   25   28 1
  47   25   46 1
  48   26   47 1
  49   28   29 1
  50   28   48 1
  51   28   49 1
  52   29   50 1

#	End of record

