#	Name: ASD05313044
#	Creating user name:	WinNT
#	Creation time:	15. 06. 2019 20:58

#	Modifying user name:	WinNT
#	Modification time:	15. 06. 2019 20:58

#	Program:	/corina/corina34_cracker 3.40 0067  02.08.2006

@<TRIPOS>MOLECULE
ASD05313044
  38   41    0    0    0
SMALL
NO_CHARGES


@<TRIPOS>ATOM
   1 C1            -0.0725     0.8203     1.0209 C.2     
   2 C2             0.1131    -0.6165     0.5948 C.3     
   3 N3             0.9304     1.7331     1.0470 N.pl3   
   4 N4             1.4566    -0.7172    -0.0060 N.am    
   5 C5             2.5708    -0.0355     0.6701 C.3     
   6 C6             2.3171     1.4767     0.6619 C.3     
   7 N7            -0.9039     2.6443     1.7029 N.2     
   8 N8            -1.1573     1.4122     1.4223 N.2     
   9 C9             0.3723     2.8934     1.4901 C.2     
  10 C10            1.0657     4.1838     1.6959 C.ar    
  11 C11            0.3498     5.2873     2.1578 C.ar    
  12 C12            1.0114     6.4888     2.3460 C.ar    
  13 C13            2.3683     6.5493     2.0663 C.ar    
  14 C14            3.0197     5.4138     1.6097 C.ar    
  15 N15            2.3665     4.2800     1.4443 N.ar    
  16 F16            4.3416     5.4680     1.3360 F       
  17 C17            1.6574    -1.4143    -1.1419 C.2     
  18 O18            2.7496    -1.4047    -1.6759 O.2     
  19 C19            0.5511    -2.1896    -1.7376 C.ar    
  20 C20            0.3199    -2.1374    -3.1155 C.ar    
  21 C21           -0.7155    -2.8647    -3.6661 C.ar    
  22 C22           -1.5247    -3.6454    -2.8556 C.ar    
  23 C23           -1.2996    -3.7000    -1.4883 C.ar    
  24 C24           -0.2650    -2.9825    -0.9277 C.ar    
  25 F25           -2.5370    -4.3555    -3.3997 F       
  26 Cl26           1.3326    -1.1594    -4.1312 Cl      
  27 H27            0.0431    -1.2736     1.4617 H       
  28 H28           -0.6445    -0.8873    -0.1406 H       
  29 H29            2.6420    -0.3871     1.6994 H       
  30 H30            3.5017    -0.2514     0.1457 H       
  31 H31            2.4960     1.8705    -0.3386 H       
  32 H32            2.9877     1.9624     1.3707 H       
  33 H33           -0.7069     5.2061     2.3657 H       
  34 H34            0.4822     7.3602     2.7024 H       
  35 H35            2.9124     7.4722     2.2026 H       
  36 H36           -0.8958    -2.8253    -4.7302 H       
  37 H37           -1.9339    -4.3096    -0.8618 H       
  38 H38           -0.0881    -3.0300     0.1366 H       
@<TRIPOS>BOND
   1    1    2 1
   2    1    3 1
   3    1    8 2
   4    2    4 1
   5    2   27 1
   6    2   28 1
   7    3    6 1
   8    3    9 1
   9    4    5 1
  10    4   17 am
  11    5    6 1
  12    5   29 1
  13    5   30 1
  14    6   31 1
  15    6   32 1
  16    7    8 1
  17    7    9 2
  18    9   10 1
  19   10   11 ar
  20   10   15 ar
  21   11   12 ar
  22   11   33 1
  23   12   13 ar
  24   12   34 1
  25   13   14 ar
  26   13   35 1
  27   14   15 ar
  28   14   16 1
  29   17   18 2
  30   17   19 1
  31   19   20 ar
  32   19   24 ar
  33   20   21 ar
  34   20   26 1
  35   21   22 ar
  36   21   36 1
  37   22   23 ar
  38   22   25 1
  39   23   24 ar
  40   23   37 1
  41   24   38 1

#	End of record

