#	Name: ASD00170686
#	Creating user name:	WinNT
#	Creation time:	15. 06. 2019 18:32

#	Modifying user name:	WinNT
#	Modification time:	15. 06. 2019 18:32

#	Program:	/corina/corina34_cracker 3.40 0067  02.08.2006

@<TRIPOS>MOLECULE
ASD00170686
  35   35    0    0    0
SMALL
NO_CHARGES


@<TRIPOS>ATOM
   1 Cl1            3.3519     6.0283    -4.8689 Cl      
   2 C2             2.3565     6.0140    -3.4467 C.ar    
   3 C3             2.7768     5.3309    -2.3174 C.ar    
   4 C4             1.9906     5.3163    -1.1846 C.ar    
   5 C5             0.7689     5.9919    -1.1775 C.ar    
   6 C6             0.3506     6.6786    -2.3187 C.ar    
   7 C7             1.1478     6.6904    -3.4439 C.ar    
   8 C8            -0.0791     5.9796     0.0340 C.2     
   9 O9             0.2390     5.2999     0.9930 O.2     
  10 C10           -1.2999     6.7840     0.0804 C.2     
  11 C11           -2.6313     6.2301    -0.0493 C.2     
  12 C12           -3.5859     7.1446     0.0229 C.2     
  13 S13           -2.9046     8.7446     0.2551 S.3     
  14 C14           -1.3079     8.1482     0.2578 C.2     
  15 N15           -0.1788     8.9271     0.4101 N.pl3   
  16 C16           -5.0603     6.8505    -0.0805 C.3     
  17 H17            3.7219     4.8083    -2.3242 H       
  18 H18            2.3191     4.7831    -0.3048 H       
  19 H19           -0.5938     7.2027    -2.3192 H       
  20 H20            0.8253     7.2213    -4.3273 H       
  21 H21           -2.8260     5.1774    -0.1913 H       
  22 H22           -0.2634     9.8864     0.5257 H       
  23 H23            0.6993     8.5151     0.4014 H       
  24 H24           -5.4616     6.6513     0.9131 H       
  25 H25           -5.5726     7.7096    -0.5138 H       
  26 H26           -5.2131     5.9780    -0.7157 H       
  27 C27            9.2491    21.1328     6.8761 C.3     
  28 C28            9.2691    19.6609     6.8680 C.1     
  29 C29            9.2850    18.4870     6.8615 C.1     
  30 C30            9.3037    17.1102     6.8539 C.1     
  31 C31            9.3196    15.9363     6.8475 C.1     
  32 H32           10.2717    21.5100     6.8683 H       
  33 H33            8.7219    21.4938     5.9930 H       
  34 H34            8.7389    21.4843     7.7729 H       
  35 H35            9.3338    14.8864     6.8417 H       
@<TRIPOS>BOND
   1    1    2 1
   2    2    3 ar
   3    2    7 ar
   4    3    4 ar
   5    3   17 1
   6    4    5 ar
   7    4   18 1
   8    5    6 ar
   9    5    8 1
  10    6    7 ar
  11    6   19 1
  12    7   20 1
  13    8    9 2
  14    8   10 1
  15   10   11 1
  16   10   14 2
  17   11   12 2
  18   11   21 1
  19   12   13 1
  20   12   16 1
  21   13   14 1
  22   14   15 1
  23   15   22 1
  24   15   23 1
  25   16   24 1
  26   16   25 1
  27   16   26 1
  28   27   28 1
  29   27   32 1
  30   27   33 1
  31   27   34 1
  32   28   29 3
  33   29   30 1
  34   30   31 3
  35   31   35 1

#	End of record

