#	Name: ASD03740257
#	Creating user name:	WinNT
#	Creation time:	15. 06. 2019 20:47

#	Modifying user name:	WinNT
#	Modification time:	15. 06. 2019 20:47

#	Program:	/corina/corina34_cracker 3.40 0067  02.08.2006

@<TRIPOS>MOLECULE
ASD03740257
  62   64    0    0    0
SMALL
NO_CHARGES


@<TRIPOS>ATOM
   1 C1            -0.4994    -0.2158     2.0173 C.ar    
   2 C2            -0.1968    -1.3451     1.2864 C.ar    
   3 C3             0.9465    -1.3790     0.4992 C.ar    
   4 C4             1.7885    -0.2767     0.4448 C.ar    
   5 C5             1.4920     0.8562     1.1733 C.ar    
   6 C6             0.3445     0.8938     1.9649 C.ar    
   7 C7             0.0228     2.1090     2.7490 C.2     
   8 C8             0.8507     2.5205     3.7813 C.2     
   9 C9             0.5169     3.6729     4.5013 C.2     
  10 C10           -0.6009     4.3699     4.1871 C.2     
  11 N11           -1.4153     3.9710     3.1767 N.am    
  12 C12           -1.1328     2.8721     2.4515 C.2     
  13 O13           -1.8733     2.5316     1.5439 O.2     
  14 C14            3.0282    -0.3182    -0.4110 C.3     
  15 C15            2.6784     0.1129    -1.8367 C.3     
  16 C16            3.8915    -0.0358    -2.7184 C.ar    
  17 C17            4.1204    -1.2275    -3.3816 C.ar    
  18 C18            5.2311    -1.3672    -4.1904 C.ar    
  19 C19            6.1189    -0.3089    -4.3372 C.ar    
  20 C20            5.8860     0.8868    -3.6696 C.ar    
  21 C21            4.7703     1.0216    -2.8668 C.ar    
  22 N22            7.2435    -0.4469    -5.1540 N.am    
  23 S23            7.0779    -0.4252    -6.8016 S.o2    
  24 O24            8.3970    -0.6292    -7.2891 O.2     
  25 O25            6.0466    -1.3673    -7.0625 O.2     
  26 C26            6.5133     1.2571    -7.1777 C.3     
  27 O27            1.2421    -2.4940    -0.2192 O.3     
  28 C28            2.2725    -3.3414     0.2929 C.3     
  29 C29           -1.1079    -2.5442     1.3424 C.3     
  30 C30           -2.3472    -2.2049     2.1730 C.3     
  31 C31           -1.5340    -2.9276    -0.0762 C.3     
  32 C32           -0.3674    -3.7176     1.9871 C.3     
  33 H33           -1.3910    -0.1886     2.6262 H       
  34 H34            2.1479     1.7132     1.1310 H       
  35 H35            1.7404     1.9597     4.0268 H       
  36 H36            1.1514     4.0067     5.3090 H       
  37 H37           -0.8488     5.2577     4.7499 H       
  38 H38           -2.2103     4.4875     2.9716 H       
  39 H39            3.7764     0.3594     0.0002 H       
  40 H40            3.4259    -1.3330    -0.4255 H       
  41 H41            1.8727    -0.5141    -2.2186 H       
  42 H42            2.3575     1.1546    -1.8330 H       
  43 H43            3.4300    -2.0500    -3.2667 H       
  44 H44            5.4095    -2.2982    -4.7078 H       
  45 H45            6.5742     1.7115    -3.7816 H       
  46 H46            4.5860     1.9525    -2.3512 H       
  47 H47            8.1215    -0.5554    -4.7562 H       
  48 H48            7.2926     1.9704    -6.9093 H       
  49 H49            6.2977     1.3384    -8.2431 H       
  50 H50            5.6104     1.4735    -6.6068 H       
  51 H51            3.2352    -2.8385     0.2020 H       
  52 H52            2.0747    -3.5605     1.3422 H       
  53 H53            2.2934    -4.2717    -0.2748 H       
  54 H54           -2.8747    -1.3689     1.7137 H       
  55 H55           -3.0061    -3.0722     2.2135 H       
  56 H56           -2.0436    -1.9317     3.1836 H       
  57 H57           -0.6486    -3.1204    -0.6819 H       
  58 H58           -2.1519    -3.8248    -0.0400 H       
  59 H59           -2.1052    -2.1106    -0.5173 H       
  60 H60           -0.0638    -3.4445     2.9977 H       
  61 H61           -1.0264    -4.5850     2.0276 H       
  62 H62            0.5155    -3.9594     1.3953 H       
@<TRIPOS>BOND
   1    1    2 ar
   2    1    6 ar
   3    1   33 1
   4    2    3 ar
   5    2   29 1
   6    3    4 ar
   7    3   27 1
   8    4    5 ar
   9    4   14 1
  10    5    6 ar
  11    5   34 1
  12    6    7 1
  13    7    8 2
  14    7   12 1
  15    8    9 1
  16    8   35 1
  17    9   10 2
  18    9   36 1
  19   10   11 1
  20   10   37 1
  21   11   12 am
  22   11   38 1
  23   12   13 2
  24   14   15 1
  25   14   39 1
  26   14   40 1
  27   15   16 1
  28   15   41 1
  29   15   42 1
  30   16   17 ar
  31   16   21 ar
  32   17   18 ar
  33   17   43 1
  34   18   19 ar
  35   18   44 1
  36   19   20 ar
  37   19   22 1
  38   20   21 ar
  39   20   45 1
  40   21   46 1
  41   22   23 am
  42   22   47 1
  43   23   24 2
  44   23   25 2
  45   23   26 1
  46   26   48 1
  47   26   49 1
  48   26   50 1
  49   27   28 1
  50   28   51 1
  51   28   52 1
  52   28   53 1
  53   29   30 1
  54   29   31 1
  55   29   32 1
  56   30   54 1
  57   30   55 1
  58   30   56 1
  59   31   57 1
  60   31   58 1
  61   31   59 1
  62   32   60 1
  63   32   61 1
  64   32   62 1

#	End of record

