#	Name: ASD00170739
#	Creating user name:	WinNT
#	Creation time:	15. 06. 2019 18:32

#	Modifying user name:	WinNT
#	Modification time:	15. 06. 2019 18:32

#	Program:	/corina/corina34_cracker 3.40 0067  02.08.2006

@<TRIPOS>MOLECULE
ASD00170739
 106  112    0    0    0
SMALL
NO_CHARGES


@<TRIPOS>ATOM
   1 C1             1.5314     0.3312    -9.4403 C.3     
   2 C2             1.8343     1.3256    -8.2976 C.3     
   3 C3             0.4560     1.5830    -7.6486 C.3     
   4 C4            -0.5167     0.7136    -8.4760 C.3     
   5 O5             0.3092    -0.3272    -9.0421 O.3     
   6 O6             0.4606     1.1667    -6.2816 O.3     
   7 O7             2.7323     0.7425    -7.3513 O.3     
   8 C8             2.6654    -0.6870    -9.5749 C.3     
   9 O9             2.4229    -1.5232   -10.7080 O.3     
  10 N10           -1.5454     0.1335    -7.6092 N.pl3   
  11 C11           -2.8778     0.4926    -7.7627 C.ar    
  12 C12           -3.7766     0.2063    -6.7440 C.ar    
  13 C13           -3.3124    -0.4747    -5.4901 C.3     
  14 N14           -1.9920    -1.0649    -5.6680 N.2     
  15 C15           -1.2046    -0.7753    -6.6397 C.2     
  16 N16           -3.3094     1.1023    -8.8612 N.ar    
  17 C17           -4.5804     1.4318    -8.9879 C.ar    
  18 N18           -5.4656     1.1752    -8.0463 N.ar    
  19 C19           -5.1083     0.5673    -6.9150 C.ar    
  20 N20           -6.0460     0.3003    -5.9287 N.pl3   
  21 C21           -7.4016     0.5614    -6.1624 C.ar    
  22 C22           -7.9294     0.4057    -7.4374 C.ar    
  23 C23           -9.2665     0.6635    -7.6671 C.ar    
  24 C24          -10.0824     1.0778    -6.6246 C.ar    
  25 C25           -9.5560     1.2335    -5.3507 C.ar    
  26 C26           -8.2204     0.9707    -5.1181 C.ar    
  27 O27          -11.3989     1.3318    -6.8517 O.3     
  28 C28          -12.1804     1.7548    -5.7326 C.3     
  29 C29          -13.6247     1.9907    -6.1792 C.3     
  30 C30          -14.4614     2.4436    -4.9810 C.3     
  31 C31          -15.9057     2.6794    -5.4275 C.3     
  32 C32          -16.7425     3.1323    -4.2294 C.3     
  33 N33          -23.5522     5.1805    -2.0223 N.3     
  34 C34          -24.8797     5.6431    -2.4517 C.3     
  35 C35          -25.8089     5.7163    -1.2358 C.3     
  36 C36          -25.0944     6.4899    -0.1384 C.2     
  37 C37          -23.7748     6.7123    -0.1551 C.2     
  38 C38          -22.8539     6.2231    -1.2559 C.3     
  39 C39          -25.7399     7.0640     1.0267 C.2     
  40 C40          -24.8660     7.7126     1.8633 C.2     
  41 S41          -23.2781     7.6327     1.2533 S.3     
  42 N42          -25.2251     8.3433     3.0373 N.pl3   
  43 C43          -27.1763     6.9627     1.2838 C.2     
  44 C44          -27.7224     5.7724     1.9706 C.ar    
  45 O45          -27.9223     7.8586     0.9322 O.2     
  46 C46          -29.1020     5.6207     2.1188 C.ar    
  47 C47          -29.6057     4.5075     2.7609 C.ar    
  48 C48          -28.7442     3.5420     3.2575 C.ar    
  49 C49          -27.3744     3.6884     3.1132 C.ar    
  50 C50          -26.8603     4.7933     2.4681 C.ar    
  51 Cl51         -31.3211     4.3166     2.9472 Cl      
  52 Cl52         -29.3842     2.1443     4.0640 Cl      
  53 C53          -18.1867     3.3681    -4.6759 C.3     
  54 C54          -19.0235     3.8210    -3.4778 C.3     
  55 C55          -20.4678     4.0569    -3.9243 C.3     
  56 C56          -21.3045     4.5098    -2.7262 C.3     
  57 C57          -22.7488     4.7456    -3.1727 C.3     
  58 H58            1.3882     0.8649   -10.3798 H       
  59 H59            2.2474     2.2519    -8.6969 H       
  60 H60            0.1887     2.6370    -7.7250 H       
  61 H61           -0.9759     1.3061    -9.2672 H       
  62 H62            1.0979     1.6392    -5.7287 H       
  63 H63            3.5936     0.5049    -7.7211 H       
  64 H64            3.6115    -0.1619    -9.7066 H       
  65 H65            2.7123    -1.2998    -8.6746 H       
  66 H66            3.1036    -2.1941   -10.8547 H       
  67 H67           -3.2714     0.2550    -4.6814 H       
  68 H68           -4.0217    -1.2593    -5.2262 H       
  69 H69           -0.2391    -1.2566    -6.6898 H       
  70 H70           -4.9053     1.9274    -9.8908 H       
  71 H71           -5.7627    -0.0673    -5.0769 H       
  72 H72           -7.2942     0.0835    -8.2493 H       
  73 H73           -9.6770     0.5428    -8.6587 H       
  74 H74          -10.1919     1.5565    -4.5396 H       
  75 H75           -7.8108     1.0920    -4.1262 H       
  76 H76          -12.1595     0.9836    -4.9626 H       
  77 H77          -11.7685     2.6806    -5.3309 H       
  78 H78          -13.6455     2.7618    -6.9492 H       
  79 H79          -14.0365     1.0649    -6.5808 H       
  80 H80          -14.4405     1.6724    -4.2109 H       
  81 H81          -14.0495     3.3694    -4.5793 H       
  82 H82          -15.9266     3.4506    -6.1976 H       
  83 H83          -16.3176     1.7536    -5.8292 H       
  84 H84          -16.7216     2.3611    -3.4593 H       
  85 H85          -16.3306     4.0581    -3.8277 H       
  86 H86          -24.7922     6.6316    -2.9026 H       
  87 H87          -25.2898     4.9450    -3.1814 H       
  88 H88          -26.7308     6.2305    -1.5078 H       
  89 H89          -26.0379     4.7094    -0.8867 H       
  90 H90          -21.9465     5.8087    -0.8167 H       
  91 H91          -22.5987     7.0528    -1.9151 H       
  92 H92          -26.1381     8.2850     3.3595 H       
  93 H93          -24.5644     8.8448     3.5401 H       
  94 H94          -29.7738     6.3728     1.7324 H       
  95 H95          -26.7078     2.9331     3.5025 H       
  96 H96          -25.7920     4.9060     2.3564 H       
  97 H97          -18.2076     4.1393    -5.4460 H       
  98 H98          -18.5986     2.4423    -5.0776 H       
  99 H99          -19.0026     3.0499    -2.7077 H       
 100 H100         -18.6116     4.7468    -3.0761 H       
 101 H101         -20.4886     4.8281    -4.6944 H       
 102 H102         -20.8796     3.1311    -4.3260 H       
 103 H103         -21.2836     3.7386    -1.9561 H       
 104 H104         -20.8926     5.4356    -2.3245 H       
 105 H105         -23.1607     3.8198    -3.5744 H       
 106 H106         -22.7697     5.5168    -3.9428 H       
@<TRIPOS>BOND
   1    1    2 1
   2    1    8 1
   3    1    5 1
   4    1   58 1
   5    2    3 1
   6    2    7 1
   7    2   59 1
   8    3    6 1
   9    3    4 1
  10    3   60 1
  11    4    5 1
  12    4   10 1
  13    4   61 1
  14    6   62 1
  15    7   63 1
  16    8    9 1
  17    8   64 1
  18    8   65 1
  19    9   66 1
  20   10   11 1
  21   10   15 1
  22   11   12 ar
  23   11   16 ar
  24   12   13 1
  25   12   19 ar
  26   13   14 1
  27   13   67 1
  28   13   68 1
  29   14   15 2
  30   15   69 1
  31   16   17 ar
  32   17   18 ar
  33   17   70 1
  34   18   19 ar
  35   19   20 1
  36   20   21 1
  37   20   71 1
  38   21   22 ar
  39   21   26 ar
  40   22   23 ar
  41   22   72 1
  42   23   24 ar
  43   23   73 1
  44   24   25 ar
  45   24   27 1
  46   25   26 ar
  47   25   74 1
  48   26   75 1
  49   27   28 1
  50   28   29 1
  51   28   76 1
  52   28   77 1
  53   29   30 1
  54   29   78 1
  55   29   79 1
  56   30   31 1
  57   30   80 1
  58   30   81 1
  59   31   32 1
  60   31   82 1
  61   31   83 1
  62   32   53 1
  63   32   84 1
  64   32   85 1
  65   33   34 1
  66   33   38 1
  67   33   57 1
  68   34   35 1
  69   34   86 1
  70   34   87 1
  71   35   36 1
  72   35   88 1
  73   35   89 1
  74   36   37 2
  75   36   39 1
  76   37   38 1
  77   37   41 1
  78   38   90 1
  79   38   91 1
  80   39   40 2
  81   39   43 1
  82   40   41 1
  83   40   42 1
  84   42   92 1
  85   42   93 1
  86   43   44 1
  87   43   45 2
  88   44   46 ar
  89   44   50 ar
  90   46   47 ar
  91   46   94 1
  92   47   48 ar
  93   47   51 1
  94   48   49 ar
  95   48   52 1
  96   49   50 ar
  97   49   95 1
  98   50   96 1
  99   53   54 1
 100   53   97 1
 101   53   98 1
 102   54   55 1
 103   54   99 1
 104   54  100 1
 105   55   56 1
 106   55  101 1
 107   55  102 1
 108   56   57 1
 109   56  103 1
 110   56  104 1
 111   57  105 1
 112   57  106 1

#	End of record

