#	Name: ASD01040027
#	Creating user name:	WinNT
#	Creation time:	15. 06. 2019 18:58

#	Modifying user name:	WinNT
#	Modification time:	15. 06. 2019 18:58

#	Program:	/corina/corina34_cracker 3.40 0067  02.08.2006

@<TRIPOS>MOLECULE
ASD01040027
  38   40    0    0    0
SMALL
NO_CHARGES


@<TRIPOS>ATOM
   1 O1            -1.4169     1.1632    -0.2187 O.3     
   2 C2            -1.1260    -0.1613    -0.1509 C.ar    
   3 C3            -2.1106    -1.1020    -0.4274 C.ar    
   4 C4            -1.8194    -2.4467    -0.3601 C.ar    
   5 C5            -0.5322    -2.8642    -0.0133 C.ar    
   6 C6            -0.2154    -4.3057     0.0595 C.2     
   7 C7            -0.5774    -5.1981    -1.0583 C.ar    
   8 C8            -1.1142    -4.6669    -2.2343 C.ar    
   9 C9            -1.4503    -5.5026    -3.2753 C.ar    
  10 C10           -1.2580    -6.8756    -3.1613 C.ar    
  11 O11           -1.5921    -7.6931    -4.1926 O.3     
  12 C12           -0.7259    -7.4127    -1.9984 C.ar    
  13 C13           -0.3788    -6.5819    -0.9472 C.ar    
  14 O14            0.1469    -7.1052     0.1896 O.3     
  15 N15            0.3890    -4.7931     1.1205 N.2     
  16 C16            0.5632    -4.0114     2.2266 C.ar    
  17 C17            1.8259    -3.9030     2.8193 C.ar    
  18 Cl18           3.1780    -4.7625     2.1509 Cl      
  19 C19            1.9935    -3.1105     3.9365 C.ar    
  20 C20            0.9164    -2.4247     4.4703 C.ar    
  21 C21           -0.3352    -2.5274     3.8892 C.ar    
  22 C22           -0.5176    -3.3109     2.7688 C.ar    
  23 C23            0.4548    -1.9154     0.2639 C.ar    
  24 C24            0.1569    -0.5724     0.1893 C.ar    
  25 H25           -1.7335     1.5396     0.6139 H       
  26 H26           -3.1056    -0.7784    -0.6951 H       
  27 H27           -2.5853    -3.1773    -0.5749 H       
  28 H28           -1.2656    -3.6016    -2.3262 H       
  29 H29           -1.8651    -5.0908    -4.1835 H       
  30 H30           -0.8748    -7.8434    -4.8235 H       
  31 H31           -0.5785    -8.4793    -1.9147 H       
  32 H32           -0.5135    -7.3467     0.8534 H       
  33 H33            2.9674    -3.0255     4.3955 H       
  34 H34            1.0525    -1.8099     5.3477 H       
  35 H35           -1.1709    -1.9894     4.3120 H       
  36 H36           -1.4953    -3.3898     2.3167 H       
  37 H37            1.4510    -2.2342     0.5327 H       
  38 H38            0.9206     0.1618     0.3991 H       
@<TRIPOS>BOND
   1    1    2 1
   2    1   25 1
   3    2    3 ar
   4    2   24 ar
   5    3    4 ar
   6    3   26 1
   7    4   27 1
   8    4    5 ar
   9    5    6 1
  10    5   23 ar
  11    6    7 1
  12    6   15 2
  13    7   13 ar
  14    7    8 ar
  15    8    9 ar
  16    8   28 1
  17    9   10 ar
  18    9   29 1
  19   10   11 1
  20   10   12 ar
  21   11   30 1
  22   12   31 1
  23   12   13 ar
  24   13   14 1
  25   14   32 1
  26   15   16 1
  27   16   17 ar
  28   16   22 ar
  29   17   18 1
  30   17   19 ar
  31   19   33 1
  32   19   20 ar
  33   20   21 ar
  34   20   34 1
  35   21   22 ar
  36   21   35 1
  37   22   36 1
  38   23   37 1
  39   23   24 ar
  40   24   38 1

#	End of record

