#	Name: ASD03930103
#	Creating user name:	WinNT
#	Creation time:	15. 06. 2019 20:47

#	Modifying user name:	WinNT
#	Modification time:	15. 06. 2019 20:47

#	Program:	/corina/corina34_cracker 3.40 0067  02.08.2006

@<TRIPOS>MOLECULE
ASD03930103
  49   52    0    0    0
SMALL
NO_CHARGES


@<TRIPOS>ATOM
   1 C1            -0.0173     1.4248     0.0099 C.3     
   2 O2             0.0021    -0.0041     0.0020 O.3     
   3 C3             0.6257    -0.6182     1.0412 C.ar    
   4 C4             0.6805    -2.0046     1.0947 C.ar    
   5 C5             1.3126    -2.6309     2.1480 C.ar    
   6 C6             1.8975    -1.8704     3.1599 C.ar    
   7 C7             1.8411    -0.4784     3.1030 C.ar    
   8 C8             1.2117     0.1419     2.0445 C.ar    
   9 C9             2.5775    -2.5406     4.2941 C.ar    
  10 C10            3.1621    -1.7779     5.3055 C.ar    
  11 C11            3.7938    -2.3994     6.3591 C.ar    
  12 C12            3.8493    -3.7939     6.4153 C.ar    
  13 C13            3.2638    -4.5567     5.4023 C.ar    
  14 C14            2.6275    -3.9336     4.3523 C.ar    
  15 C15            4.5276    -4.4619     7.5457 C.2     
  16 C16            5.7332    -4.1056     8.0560 C.2     
  17 C17            6.6095    -2.9752     7.5814 C.3     
  18 C18            6.0197    -5.0264     9.1545 C.ar    
  19 C19            4.9226    -5.9056     9.2292 C.ar    
  20 N20            4.0308    -5.5372     8.2461 N.pl3   
  21 C21            2.7497    -6.1964     7.9806 C.3     
  22 C22            1.6521    -5.5328     8.8147 C.3     
  23 C23            4.9160    -6.9056    10.1963 C.ar    
  24 C24            5.9780    -7.0243    11.0661 C.ar    
  25 C25            7.0577    -6.1548    10.9892 C.ar    
  26 C26            7.0865    -5.1659    10.0474 C.ar    
  27 H27            1.0053     1.8021     0.0021 H       
  28 H28           -0.5445     1.7859    -0.8732 H       
  29 H29           -0.5275     1.7763     0.9067 H       
  30 H30            0.2273    -2.5930     0.3107 H       
  31 H31            1.3544    -3.7093     2.1894 H       
  32 H32            2.2932     0.1134     3.8852 H       
  33 H33            1.1679     1.2201     1.9997 H       
  34 H34            3.1194    -0.6997     5.2617 H       
  35 H35            4.2466    -1.8088     7.1418 H       
  36 H36            3.3066    -5.6350     5.4447 H       
  37 H37            2.1744    -4.5232     3.5691 H       
  38 H38            6.3542    -2.0650     8.1241 H       
  39 H39            7.6549    -3.2251     7.7627 H       
  40 H40            6.4533    -2.8178     6.5142 H       
  41 H41            2.5067    -6.1053     6.9219 H       
  42 H42            2.8215    -7.2508     8.2474 H       
  43 H43            1.8950    -5.6239     9.8733 H       
  44 H44            1.5803    -4.4784     8.5478 H       
  45 H45            0.6989    -6.0233     8.6171 H       
  46 H46            4.0808    -7.5868    10.2652 H       
  47 H47            5.9702    -7.8016    11.8159 H       
  48 H48            7.8816    -6.2615    11.6793 H       
  49 H49            7.9297    -4.4933     9.9935 H       
@<TRIPOS>BOND
   1    1    2 1
   2    1   27 1
   3    1   28 1
   4    1   29 1
   5    2    3 1
   6    3    4 ar
   7    3    8 ar
   8    4    5 ar
   9    4   30 1
  10    5    6 ar
  11    5   31 1
  12    6    7 ar
  13    6    9 1
  14    7    8 ar
  15    7   32 1
  16    8   33 1
  17    9   10 ar
  18    9   14 ar
  19   10   11 ar
  20   10   34 1
  21   11   12 ar
  22   11   35 1
  23   12   13 ar
  24   12   15 1
  25   13   14 ar
  26   13   36 1
  27   14   37 1
  28   15   16 2
  29   15   20 1
  30   16   17 1
  31   16   18 1
  32   17   38 1
  33   17   39 1
  34   17   40 1
  35   18   19 ar
  36   18   26 ar
  37   19   20 1
  38   19   23 ar
  39   20   21 1
  40   21   22 1
  41   21   41 1
  42   21   42 1
  43   22   43 1
  44   22   44 1
  45   22   45 1
  46   23   24 ar
  47   23   46 1
  48   24   25 ar
  49   24   47 1
  50   25   26 ar
  51   25   48 1
  52   26   49 1

#	End of record

