#	Name: ASD01815764
#	Creating user name:	WinNT
#	Creation time:	15. 06. 2019 19:33

#	Modifying user name:	WinNT
#	Modification time:	15. 06. 2019 19:33

#	Program:	/corina/corina34_cracker 3.40 0067  02.08.2006

@<TRIPOS>MOLECULE
ASD01815764
  68   73    0    0    0
SMALL
NO_CHARGES


@<TRIPOS>ATOM
   1 C1             0.0371     1.4994    -0.0597 C.ar    
   2 C2             0.0325     0.1083    -0.0566 C.ar    
   3 C3             1.1988    -0.5972    -0.0582 C.ar    
   4 C4             2.4252     0.0847    -0.0631 C.ar    
   5 C5             2.4261     1.5009    -0.0662 C.ar    
   6 C6             1.2114     2.1941    -0.0645 C.ar    
   7 C7             3.6481    -0.6185    -0.0653 C.ar    
   8 C8             4.8332     0.0372    -0.0705 C.ar    
   9 C9             4.8897     1.4396    -0.0739 C.ar    
  10 C10            3.7070     2.2014    -0.0714 C.ar    
  11 C11            6.1688     2.1611    -0.0805 C.2     
  12 N12            6.1220     3.5135    -0.0843 N.am    
  13 C13            4.9300     4.1611    -0.0814 C.2     
  14 N14            3.7853     3.5427    -0.0760 N.2     
  15 C15            7.3679     4.2841    -0.0909 C.3     
  16 C16            7.4196     5.1639    -1.3438 C.3     
  17 C17            7.4234     5.1793     1.1508 C.3     
  18 C18            8.6899     6.0376     1.0953 C.3     
  19 O19            8.6897     6.8074    -0.1086 O.3     
  20 C20            8.6863     6.0227    -1.3029 C.3     
  21 O21            7.4489     4.3657     2.3253 O.3     
  22 O22            7.2309     1.5652    -0.0822 O.2     
  23 C23            3.6357    -2.1254    -0.0614 C.3     
  24 C24            3.5030    -2.6304    -1.4751 C.ar    
  25 C25            4.6344    -2.8752    -2.2404 C.ar    
  26 C26            4.4696    -3.3388    -3.5340 C.ar    
  27 C27            3.1798    -3.5428    -4.0209 C.ar    
  28 N28            2.1235    -3.2964    -3.2560 N.ar    
  29 C29            2.2530    -2.8596    -2.0198 C.ar    
  30 C30            2.9861    -4.0385    -5.4045 C.ar    
  31 C31            1.6984    -4.2450    -5.8985 C.ar    
  32 C32            1.5206    -4.7059    -7.1850 C.ar    
  33 C33            2.6241    -4.9656    -7.9903 C.ar    
  34 C34            3.9089    -4.7605    -7.4998 C.ar    
  35 C35            4.0912    -4.2937    -6.2160 C.ar    
  36 N36            2.4418    -5.4330    -9.2916 N.pl3   
  37 C37            1.0983    -5.7733    -9.7663 C.3     
  38 C38            3.5940    -5.5836   -10.1839 C.3     
  39 H39           -0.9001     2.0360    -0.0628 H       
  40 H40           -0.9092    -0.4205    -0.0524 H       
  41 H41            1.1790    -1.6770    -0.0554 H       
  42 H42            1.2030     3.2741    -0.0672 H       
  43 H43            5.7523    -0.5299    -0.0718 H       
  44 H44            4.9313     5.2411    -0.0838 H       
  45 H45            8.2183     3.6023    -0.0888 H       
  46 H46            7.4363     4.5322    -2.2320 H       
  47 H47            6.5422     5.8100    -1.3717 H       
  48 H48            6.5461     5.8257     1.1733 H       
  49 H49            8.7131     6.7073     1.9550 H       
  50 H50            9.5678     5.3917     1.1137 H       
  51 H51            9.5641     5.3767    -1.3159 H       
  52 H52            8.7068     6.6817    -2.1709 H       
  53 H53            7.4843     4.8679     3.1509 H       
  54 H54            4.5655    -2.4953     0.3708 H       
  55 H55            2.7929    -2.4803     0.5318 H       
  56 H56            5.6216    -2.7073    -1.8358 H       
  57 H57            5.3283    -3.5393    -4.1575 H       
  58 H58            1.3706    -2.6702    -1.4266 H       
  59 H59            0.8411    -4.0441    -5.2731 H       
  60 H60            0.5235    -4.8659    -7.5679 H       
  61 H61            4.7646    -4.9628    -8.1270 H       
  62 H62            5.0893    -4.1345    -5.8354 H       
  63 H63            0.3897    -5.6890    -8.9424 H       
  64 H64            0.8107    -5.0888   -10.5644 H       
  65 H65            1.0949    -6.7952   -10.1454 H       
  66 H66            4.0080    -6.5861   -10.0765 H       
  67 H67            3.2772    -5.4298   -11.2154 H       
  68 H68            4.3539    -4.8468    -9.9236 H       
@<TRIPOS>BOND
   1    1    2 ar
   2    1    6 ar
   3    1   39 1
   4    2    3 ar
   5    2   40 1
   6    3    4 ar
   7    3   41 1
   8    4    5 ar
   9    4    7 ar
  10    5    6 ar
  11    5   10 ar
  12    6   42 1
  13    7    8 ar
  14    7   23 1
  15    8    9 ar
  16    8   43 1
  17    9   10 ar
  18    9   11 1
  19   10   14 1
  20   11   12 am
  21   11   22 2
  22   12   13 1
  23   12   15 1
  24   13   14 2
  25   13   44 1
  26   15   16 1
  27   15   17 1
  28   15   45 1
  29   16   20 1
  30   16   46 1
  31   16   47 1
  32   17   18 1
  33   17   21 1
  34   17   48 1
  35   18   19 1
  36   18   49 1
  37   18   50 1
  38   19   20 1
  39   20   51 1
  40   20   52 1
  41   21   53 1
  42   23   24 1
  43   23   54 1
  44   23   55 1
  45   24   25 ar
  46   24   29 ar
  47   25   26 ar
  48   25   56 1
  49   26   27 ar
  50   26   57 1
  51   27   28 ar
  52   27   30 1
  53   28   29 ar
  54   29   58 1
  55   30   31 ar
  56   30   35 ar
  57   31   32 ar
  58   31   59 1
  59   32   33 ar
  60   32   60 1
  61   33   34 ar
  62   33   36 1
  63   34   35 ar
  64   34   61 1
  65   35   62 1
  66   36   37 1
  67   36   38 1
  68   37   63 1
  69   37   64 1
  70   37   65 1
  71   38   66 1
  72   38   67 1
  73   38   68 1

#	End of record

