#	Name: ASD01150468
#	Creating user name:	WinNT
#	Creation time:	15. 06. 2019 19:04

#	Modifying user name:	WinNT
#	Modification time:	15. 06. 2019 19:04

#	Program:	/corina/corina34_cracker 3.40 0067  02.08.2006

@<TRIPOS>MOLECULE
ASD01150468
  44   46    0    0    0
SMALL
NO_CHARGES


@<TRIPOS>ATOM
   1 C1             1.9143     1.4016     0.9687 C.ar    
   2 C2             1.9596     0.0213     0.9430 C.ar    
   3 C3             0.4926     0.0046    -0.9573 C.ar    
   4 C4             0.4445     1.3911    -0.9341 C.ar    
   5 C5             1.1563     2.0910     0.0298 C.ar    
   6 N6             1.1105     3.4892     0.0567 N.am    
   7 C7            -0.0780     4.1147    -0.0078 C.2     
   8 N8            -0.1589     5.4581     0.0161 N.am    
   9 C9             0.9636     6.2013     0.1061 C.2     
  10 C10            2.2667     5.5231     0.1770 C.2     
  11 N11            2.3023     4.2168     0.1563 N.2     
  12 O12            0.8987     7.4163     0.1278 O.2     
  13 C13           -1.4670     6.1139    -0.0561 C.3     
  14 O14           -1.0968     3.4557    -0.0895 O.2     
  15 C15           -2.0092     6.3079     1.3365 C.ar    
  16 C16           -1.7298     7.4632     2.0406 C.ar    
  17 N17           -2.1999     7.6422     3.2600 N.ar    
  18 C18           -2.9504     6.7346     3.8545 C.ar    
  19 C19           -3.2730     5.5505     3.2098 C.ar    
  20 C20           -2.7993     5.3313     1.9241 C.ar    
  21 O21            3.4151     6.2432     0.2677 O.3     
  22 C22            4.6386     5.5078     0.3321 C.3     
  23 C23            1.2518    -0.6785    -0.0157 C.ar    
  24 N24           -0.2233    -0.7049    -1.9279 N.am    
  25 C25            0.2667    -1.8622    -2.4149 C.2     
  26 C26           -0.5545    -2.6831    -3.3755 C.3     
  27 O27            1.3684    -2.2429    -2.0799 O.2     
  28 Cl28          -3.5399     7.0260     5.4611 Cl      
  29 F29           -4.0417     4.6243     3.8235 F       
  30 H30            2.4650     1.9454     1.7220 H       
  31 H31            2.5496    -0.5122     1.6735 H       
  32 H32           -0.1453     1.9245    -1.6649 H       
  33 H33           -1.3610     7.0833    -0.5431 H       
  34 H34           -2.1540     5.4921    -0.6301 H       
  35 H35           -1.1185     8.2293     1.5871 H       
  36 H36           -3.0340     4.4186     1.3966 H       
  37 H37            4.6282     4.8614     1.2097 H       
  38 H38            4.7446     4.8993    -0.5660 H       
  39 H39            5.4764     6.2016     0.4019 H       
  40 H40            1.2893    -1.7577    -0.0331 H       
  41 H41           -1.0722    -0.3638    -2.2503 H       
  42 H42           -0.3365    -2.3725    -4.3973 H       
  43 H43           -0.3069    -3.7379    -3.2557 H       
  44 H44           -1.6140    -2.5328    -3.1682 H       
@<TRIPOS>BOND
   1    1    2 ar
   2    1    5 ar
   3    1   30 1
   4    2   23 ar
   5    2   31 1
   6    3    4 ar
   7    3   24 1
   8    3   23 ar
   9    4    5 ar
  10    4   32 1
  11    5    6 1
  12    6    7 am
  13    6   11 1
  14    7    8 am
  15    7   14 2
  16    8    9 am
  17    8   13 1
  18    9   10 1
  19    9   12 2
  20   10   11 2
  21   10   21 1
  22   13   15 1
  23   13   33 1
  24   13   34 1
  25   15   16 ar
  26   15   20 ar
  27   16   17 ar
  28   16   35 1
  29   17   18 ar
  30   18   19 ar
  31   18   28 1
  32   19   20 ar
  33   19   29 1
  34   20   36 1
  35   21   22 1
  36   22   37 1
  37   22   38 1
  38   22   39 1
  39   23   40 1
  40   24   25 am
  41   24   41 1
  42   25   26 1
  43   25   27 2
  44   26   42 1
  45   26   43 1
  46   26   44 1

#	End of record

