#	Name: ASD05170122
#	Creating user name:	WinNT
#	Creation time:	15. 06. 2019 20:57

#	Modifying user name:	WinNT
#	Modification time:	15. 06. 2019 20:57

#	Program:	/corina/corina34_cracker 3.40 0067  02.08.2006

@<TRIPOS>MOLECULE
ASD05170122
  42   45    0    0    0
SMALL
NO_CHARGES


@<TRIPOS>ATOM
   1 C1            -0.2238     1.4600    -1.1205 C.ar    
   2 C2            -0.2351     0.0848    -1.2738 C.ar    
   3 C3             0.9622    -0.6066    -1.1384 C.ar    
   4 C4             2.1189     0.0946    -0.8569 C.ar    
   5 N5             2.0969     1.4066    -0.7164 N.ar    
   6 C6             0.9769     2.0990    -0.8381 C.ar    
   7 O7             1.0007     3.4471    -0.6855 O.3     
   8 C8             2.2659     4.0451    -0.3962 C.3     
   9 C9             2.0977     5.5366    -0.2618 C.2     
  10 C10            0.8956     6.2454    -0.3904 C.2     
  11 N11            3.0503     6.4004     0.0020 N.2     
  12 C12            1.2327     7.5541    -0.1916 C.2     
  13 C13            0.4249     8.7831    -0.1923 C.2     
  14 N14            2.5867     7.5872     0.0597 N.pl3   
  15 C15            3.2737     8.8506     0.3541 C.3     
  16 C16            2.5572     9.9930    -0.3644 C.3     
  17 N17            1.1093     9.9526    -0.1731 N.am    
  18 O18           -0.7910     8.7516    -0.2095 O.2     
  19 C19            3.2535     9.1036     1.8629 C.3     
  20 Cl20           1.0044    -2.3325    -1.3203 Cl      
  21 C21            0.4145    11.1477     0.0393 C.ar    
  22 C22            0.3117    12.0926    -0.9739 C.ar    
  23 N23           -0.3417    13.2202    -0.7789 N.ar    
  24 C24           -0.9206    13.4982     0.3729 C.ar    
  25 C25           -0.8624    12.6069     1.4311 C.ar    
  26 C26           -0.1889    11.4050     1.2672 C.ar    
  27 F27           -1.4582    12.9020     2.6072 F       
  28 H28           -1.1356     2.0295    -1.2234 H       
  29 H29           -1.1537    -0.4390    -1.4933 H       
  30 H30            3.0525    -0.4376    -0.7502 H       
  31 H31            2.6554     3.6378     0.5368 H       
  32 H32            2.9632     3.8296    -1.2058 H       
  33 H33           -0.0847     5.8440    -0.6010 H       
  34 H34            4.3056     8.7931     0.0078 H       
  35 H35            2.9362    10.9415     0.0161 H       
  36 H36            2.7754     9.9308    -1.4306 H       
  37 H37            3.7612     8.2864     2.3752 H       
  38 H38            3.7637    10.0418     2.0809 H       
  39 H39            2.2211     9.1628     2.2076 H       
  40 H40            0.7727    11.9011    -1.9317 H       
  41 H41           -1.4468    14.4336     0.4926 H       
  42 H42           -0.1308    10.6887     2.0734 H       
@<TRIPOS>BOND
   1    1    2 ar
   2    1    6 ar
   3    1   28 1
   4    2    3 ar
   5    2   29 1
   6    3    4 ar
   7    3   20 1
   8    4    5 ar
   9    4   30 1
  10    5    6 ar
  11    6    7 1
  12    7    8 1
  13    8    9 1
  14    8   31 1
  15    8   32 1
  16    9   11 2
  17    9   10 1
  18   10   12 2
  19   10   33 1
  20   11   14 1
  21   12   14 1
  22   12   13 1
  23   13   17 am
  24   13   18 2
  25   14   15 1
  26   15   16 1
  27   15   19 1
  28   15   34 1
  29   16   17 1
  30   16   35 1
  31   16   36 1
  32   17   21 1
  33   19   37 1
  34   19   38 1
  35   19   39 1
  36   21   22 ar
  37   21   26 ar
  38   22   23 ar
  39   22   40 1
  40   23   24 ar
  41   24   25 ar
  42   24   41 1
  43   25   26 ar
  44   25   27 1
  45   26   42 1

#	End of record

