#	Name: ASD01208740
#	Creating user name:	WinNT
#	Creation time:	15. 06. 2019 19:10

#	Modifying user name:	WinNT
#	Modification time:	15. 06. 2019 19:10

#	Program:	/corina/corina34_cracker 3.40 0067  02.08.2006

@<TRIPOS>MOLECULE
ASD01208740
  66   70    0    0    0
SMALL
NO_CHARGES


@<TRIPOS>ATOM
   1 C1            -0.0506     1.3603    -0.4067 C.2     
   2 C2             0.0243     0.0686     0.2967 C.ar    
   3 C3             1.2621    -0.5718     0.4644 C.ar    
   4 C4             1.3233    -1.7857     1.1267 C.ar    
   5 C5             0.1645    -2.3655     1.6222 C.ar    
   6 C6            -1.0632    -1.7319     1.4567 C.ar    
   7 C7            -1.1365    -0.5222     0.8052 C.ar    
   8 O8             0.9614     1.8744    -0.8437 O.2     
   9 N9            -1.2413     1.9700    -0.5710 N.am    
  10 O10            2.3940    -0.0034    -0.0212 O.3     
  11 C11            3.5509    -0.7093     0.0680 C.ar    
  12 C12            3.9125    -1.5787    -0.9533 C.ar    
  13 C13            5.0854    -2.2971    -0.8662 C.ar    
  14 C14            5.9109    -2.1497     0.2503 C.ar    
  15 C15            5.5442    -1.2745     1.2746 C.ar    
  16 C16            4.3723    -0.5558     1.1777 C.ar    
  17 O17            8.0562    -2.8751     1.3621 O.3     
  18 C18            7.1691    -2.9185     0.3479 C.2     
  19 N19            7.6312    -3.7713    -0.5367 N.2     
  20 N20            8.7500    -4.2506    -0.1196 N.2     
  21 C21            9.0440    -3.7276     1.0376 C.2     
  22 C22           10.2700    -4.0241     1.8623 C.3     
  23 S23           -2.7859     4.1081    -1.5289 S.3     
  24 C24           -1.3120     3.1893    -1.2349 C.2     
  25 N25           -0.3025     3.8325    -1.7366 N.2     
  26 C26           -0.5609     4.9811    -2.3338 C.2     
  27 C27           -1.8436     5.3497    -2.3515 C.2     
  28 F28           -2.3351     6.4798    -2.9051 F       
  29 O29            0.2285    -3.5560     2.2706 O.3     
  30 C30           -1.0018    -4.0975     2.7557 C.3     
  31 N31           -1.2833    -8.2559     3.7033 N.3     
  32 C32           -1.7651    -7.3166     4.7241 C.3     
  33 C33           -2.0276    -5.9529     4.0811 C.3     
  34 C34           -0.7318    -5.4324     3.4528 C.3     
  35 C35           -0.2253    -6.4515     2.4284 C.3     
  36 C36           -0.0151    -7.8008     3.1193 C.3     
  37 C37           -1.1525    -9.6111     4.2548 C.3     
  38 C38           -0.8929   -10.6015     3.1179 C.3     
  39 H39            2.2736    -2.2819     1.2575 H       
  40 H40           -1.9613    -2.1891     1.8450 H       
  41 H41           -2.0908    -0.0314     0.6828 H       
  42 H42           -2.0489     1.5581    -0.2259 H       
  43 H43            3.2735    -1.6921    -1.8166 H       
  44 H44            5.3655    -2.9733    -1.6603 H       
  45 H45            6.1801    -1.1580     2.1397 H       
  46 H46            4.0901     0.1246     1.9675 H       
  47 H47           10.0634    -4.8575     2.5338 H       
  48 H48           11.0972    -4.2857     1.2024 H       
  49 H49           10.5362    -3.1436     2.4471 H       
  50 H50            0.2162     5.5844    -2.7793 H       
  51 H51           -1.4506    -3.4017     3.4645 H       
  52 H52           -1.6838    -4.2554     1.9201 H       
  53 H53           -2.6891    -7.6965     5.1600 H       
  54 H54           -1.0120    -7.2110     5.5050 H       
  55 H55           -2.7906    -6.0551     3.3095 H       
  56 H56           -2.3703    -5.2517     4.8420 H       
  57 H57            0.0192    -5.2920     4.2303 H       
  58 H58           -0.9601    -6.5616     1.6308 H       
  59 H59            0.7195    -6.1066     2.0085 H       
  60 H60            0.7298    -7.6929     3.9076 H       
  61 H61            0.3318    -8.5323     2.3895 H       
  62 H62           -0.3200    -9.6386     4.9578 H       
  63 H63           -2.0730    -9.8837     4.7710 H       
  64 H64           -0.7958   -11.6071     3.5271 H       
  65 H65           -1.7254   -10.5741     2.4149 H       
  66 H66            0.0276   -10.3289     2.6017 H       
@<TRIPOS>BOND
   1    1    2 1
   2    1    8 2
   3    1    9 am
   4    2    3 ar
   5    2    7 ar
   6    3    4 ar
   7    3   10 1
   8    4    5 ar
   9    4   39 1
  10    5    6 ar
  11    5   29 1
  12    6    7 ar
  13    6   40 1
  14    7   41 1
  15    9   24 1
  16    9   42 1
  17   10   11 1
  18   11   12 ar
  19   11   16 ar
  20   12   13 ar
  21   12   43 1
  22   13   14 ar
  23   13   44 1
  24   14   15 ar
  25   14   18 1
  26   15   16 ar
  27   15   45 1
  28   16   46 1
  29   17   18 1
  30   17   21 1
  31   18   19 2
  32   19   20 1
  33   20   21 2
  34   21   22 1
  35   22   47 1
  36   22   48 1
  37   22   49 1
  38   23   24 1
  39   23   27 1
  40   24   25 2
  41   25   26 1
  42   26   27 2
  43   26   50 1
  44   27   28 1
  45   29   30 1
  46   30   34 1
  47   30   51 1
  48   30   52 1
  49   31   32 1
  50   31   36 1
  51   31   37 1
  52   32   33 1
  53   32   53 1
  54   32   54 1
  55   33   34 1
  56   33   55 1
  57   33   56 1
  58   34   35 1
  59   34   57 1
  60   35   36 1
  61   35   58 1
  62   35   59 1
  63   36   60 1
  64   36   61 1
  65   37   38 1
  66   37   62 1
  67   37   63 1
  68   38   64 1
  69   38   65 1
  70   38   66 1

#	End of record

