#	Name: ASD05143054
#	Creating user name:	WinNT
#	Creation time:	15. 06. 2019 20:57

#	Modifying user name:	WinNT
#	Modification time:	15. 06. 2019 20:57

#	Program:	/corina/corina34_cracker 3.40 0067  02.08.2006

@<TRIPOS>MOLECULE
ASD05143054
 147  150    0    0    0
SMALL
NO_CHARGES


@<TRIPOS>ATOM
   1 C1             0.5533     1.6277     3.0640 C.2     
   2 C2             1.1697     0.3540     3.5825 C.3     
   3 N3             1.3258     2.5542     2.4628 N.am    
   4 O4            -0.6387     1.8168     3.1832 O.2     
   5 C5             0.7265     3.7923     1.9588 C.3     
   6 C6            -0.3324     3.4552     0.9071 C.3     
   7 C7             0.0827     4.5391     3.0985 C.2     
   8 C8             0.3406     2.8085    -0.3052 C.3     
   9 C9            -0.7183     2.4713    -1.3568 C.3     
  10 N10           -0.0739     1.8520    -2.5176 N.pl3   
  11 C11           -0.8307     1.4611    -3.5968 C.2     
  12 N12           -0.2260     0.8800    -4.6862 N.pl3   
  13 N13           -2.1216     1.6414    -3.5871 N.2     
  14 O14           -0.2057     3.9538     4.1208 O.2     
  15 N15           -0.1725     5.8573     2.9816 N.am    
  16 C16           -0.7984     6.5832     4.0896 C.3     
  17 C17            0.1891     7.6087     4.6499 C.3     
  18 C18            1.5542     6.9474     4.8488 C.3     
  19 C19            2.3550     7.0546     3.5768 C.2     
  20 O20            1.8485     6.7994     2.5048 O.2     
  21 N21            3.6621     7.4451     3.6533 N.am    
  22 C22            4.3787     7.5186     2.3597 C.3     
  23 C23            4.1730     8.9128     1.7641 C.3     
  24 C24            4.4188     8.8634     0.2548 C.3     
  25 C25            5.1252    10.1457    -0.1898 C.3     
  26 N26            4.6150    10.5340    -1.5201 N.am    
  27 C27            6.6103     9.9024    -0.2699 C.2     
  28 N28            7.3576     9.9211     0.8516 N.am    
  29 O29            7.1329     9.6897    -1.3434 O.2     
  30 C30            3.6167    11.4589    -1.5422 C.2     
  31 O31            3.1917    11.9286    -0.5080 O.2     
  32 C32            3.0464    11.8923    -2.8681 C.3     
  33 N33            1.7519    12.5696    -2.6256 N.am    
  34 C34            4.0133    12.8614    -3.5513 C.3     
  35 C35            0.6412    11.8402    -2.9434 C.2     
  36 O36            0.7464    10.7202    -3.3968 O.2     
  37 C37           -0.7171    12.4535    -2.7194 C.3     
  38 N38           -1.7021    11.3716    -2.5212 N.am    
  39 C39           -0.6782    13.3454    -1.4769 C.3     
  40 C40           -2.5686    11.5196    -1.4816 C.2     
  41 O41           -2.5099    12.4972    -0.7662 O.2     
  42 C42           -3.6022    10.4515    -1.2330 C.3     
  43 C43            3.4996    13.1968    -4.9277 C.2     
  44 C44            2.5251    14.2374    -5.2645 C.ar    
  45 C45            2.3587    14.1770    -6.6600 C.ar    
  46 N46            3.1765    13.1710    -7.1235 N.pl3   
  47 C47            3.8525    12.6024    -6.0785 C.2     
  48 C48            1.8111    15.1766    -4.5177 C.ar    
  49 C49            0.9532    16.0334    -5.1473 C.ar    
  50 C50            0.7851    15.9776    -6.5243 C.ar    
  51 C51            1.4801    15.0596    -7.2804 C.ar    
  52 N52           -3.7498    10.2651     0.2286 N.am    
  53 C53           -3.1482     9.1388    -1.8745 C.3     
  54 C54           -4.2326     8.1035    -1.7216 C.ar    
  55 C55           -5.1716     7.9365    -2.7240 C.ar    
  56 C56           -6.1666     6.9905    -2.5907 C.ar    
  57 C57           -6.2248     6.2004    -1.4408 C.ar    
  58 C58           -5.2740     6.3743    -0.4332 C.ar    
  59 C59           -4.2812     7.3205    -0.5819 C.ar    
  60 C60           -2.0313     7.2932     3.5923 C.2     
  61 O61           -3.1304     6.9686     3.9893 O.2     
  62 C62           -0.2265    12.5199    -0.2705 C.3     
  63 C63           -0.0780    13.4349     0.9468 C.3     
  64 N64            0.3545    12.6445     2.1019 N.pl3   
  65 C65            0.5558    13.2560     3.3168 C.2     
  66 N66            0.9617    12.5142     4.4008 N.pl3   
  67 N67            0.3618    14.5389     3.4407 N.2     
  68 N68           -1.8937     8.3038     2.6907 N.am    
  69 C69           -3.1364     8.9620     2.2406 C.3     
  70 C70           -3.0376     9.2277     0.7606 C.2     
  71 O71           -2.3384     8.5327     0.0541 O.2     
  72 C72           -7.2553     5.2167    -1.2955 C.1     
  73 N73           -8.0727     4.4363    -1.1802 N.1     
  74 C74           -3.3157    10.2849     2.9881 C.3     
  75 C75           -3.5270    10.0047     4.4773 C.3     
  76 C76           -2.0660    11.1482     2.8039 C.3     
  77 H77            2.2412     0.3612     3.3823 H       
  78 H78            1.0013     0.2800     4.6568 H       
  79 H79            0.7126    -0.5003     3.0833 H       
  80 H80            2.2785     2.4012     2.3639 H       
  81 H81            1.5007     4.4137     1.5086 H       
  82 H82           -1.0587     2.7624     1.3320 H       
  83 H83           -0.8399     4.3685     0.5967 H       
  84 H84            1.0670     3.5013    -0.7301 H       
  85 H85            0.8481     1.8951     0.0052 H       
  86 H86           -1.4447     1.7785    -0.9319 H       
  87 H87           -1.2258     3.3846    -1.6672 H       
  88 H88            0.8868     1.7178    -2.5248 H       
  89 H89            0.7347     0.7458    -4.6934 H       
  90 H90           -0.7599     0.6041    -5.4475 H       
  91 H91           -2.6555     1.3656    -4.3485 H       
  92 H92            0.0581     6.3254     2.1640 H       
  93 H93           -1.0760     5.8795     4.8744 H       
  94 H94            0.2862     8.4392     3.9507 H       
  95 H95           -0.1773     7.9805     5.6068 H       
  96 H96            2.0868     7.4492     5.6567 H       
  97 H97            1.4153     5.8966     5.1031 H       
  98 H98            4.0907     7.6595     4.4966 H       
  99 H99            5.4424     7.3429     2.5203 H       
 100 H100           3.9804     6.7673     1.6778 H       
 101 H101           3.1519     9.2427     1.9554 H       
 102 H102           4.8726     9.6111     2.2236 H       
 103 H103           5.0440     8.0030     0.0165 H       
 104 H104           3.4652     8.7748    -0.2658 H       
 105 H105           4.9216    10.9420     0.5262 H       
 106 H106           4.9725    10.1496    -2.3357 H       
 107 H107           6.9396    10.0912     1.7102 H       
 108 H108           8.3135     9.7645     0.8000 H       
 109 H109           2.8898    11.0195    -3.5021 H       
 110 H110           1.6964    13.4688    -2.2662 H       
 111 H111           4.0912    13.7740    -2.9602 H       
 112 H112           4.9959    12.3968    -3.6334 H       
 113 H113          -0.9974    13.0477    -3.5892 H       
 114 H114          -1.7301    10.5949    -3.1016 H       
 115 H115           0.0222    14.1646    -1.6394 H       
 116 H116          -1.6728    13.7497    -1.2887 H       
 117 H117          -4.5564    10.7594    -1.6606 H       
 118 H118           3.2634    12.9072    -8.0529 H       
 119 H119           4.5594    11.7906    -6.1656 H       
 120 H120           1.9363    15.2253    -3.4461 H       
 121 H121           0.4012    16.7597    -4.5693 H       
 122 H122           0.1031    16.6614    -7.0077 H       
 123 H123           1.3427    15.0243    -8.3510 H       
 124 H124          -4.3128    10.8397     0.7706 H       
 125 H125          -2.9485     9.3020    -2.9336 H       
 126 H126          -2.2402     8.7892    -1.3832 H       
 127 H127          -5.1256     8.5485    -3.6127 H       
 128 H128          -6.8991     6.8614    -3.3737 H       
 129 H129          -5.3135     5.7668     0.4589 H       
 130 H130          -3.5452     7.4560     0.1967 H       
 131 H131          -0.9689    11.7505    -0.0582 H       
 132 H132           0.7318    12.0494    -0.4904 H       
 133 H133           0.6643    14.2043     0.7345 H       
 134 H134          -1.0363    13.9054     1.1667 H       
 135 H135           0.4989    11.6898     2.0097 H       
 136 H136           1.1060    11.5595     4.3086 H       
 137 H137           1.1037    12.9457     5.2579 H       
 138 H138           0.5038    14.9703     4.2978 H       
 139 H139          -1.0235     8.5778     2.3610 H       
 140 H140          -3.9873     8.3102     2.4386 H       
 141 H141          -4.1832    10.8120     2.5910 H       
 142 H142          -2.6245     9.5579     4.8946 H       
 143 H143          -3.7431    10.9388     4.9957 H       
 144 H144          -4.3638     9.3176     4.6026 H       
 145 H145          -1.9155    11.3478     1.7430 H       
 146 H146          -2.1937    12.0906     3.3364 H       
 147 H147          -1.1985    10.6211     3.2011 H       
@<TRIPOS>BOND
   1    1    2 1
   2    1    3 am
   3    1    4 2
   4    2   77 1
   5    2   78 1
   6    2   79 1
   7    3    5 1
   8    3   80 1
   9    5    6 1
  10    5    7 1
  11    5   81 1
  12    6    8 1
  13    6   82 1
  14    6   83 1
  15    7   14 2
  16    7   15 am
  17    8    9 1
  18    8   84 1
  19    8   85 1
  20    9   10 1
  21    9   86 1
  22    9   87 1
  23   10   11 1
  24   10   88 1
  25   11   12 1
  26   11   13 2
  27   12   89 1
  28   12   90 1
  29   13   91 1
  30   15   16 1
  31   15   92 1
  32   16   17 1
  33   16   60 1
  34   16   93 1
  35   17   18 1
  36   17   94 1
  37   17   95 1
  38   18   19 1
  39   18   96 1
  40   18   97 1
  41   19   20 2
  42   19   21 am
  43   21   22 1
  44   21   98 1
  45   22   23 1
  46   22   99 1
  47   22  100 1
  48   23   24 1
  49   23  101 1
  50   23  102 1
  51   24   25 1
  52   24  103 1
  53   24  104 1
  54   25   26 1
  55   25   27 1
  56   25  105 1
  57   26   30 am
  58   26  106 1
  59   27   28 am
  60   27   29 2
  61   28  107 1
  62   28  108 1
  63   30   31 2
  64   30   32 1
  65   32   33 1
  66   32   34 1
  67   32  109 1
  68   33   35 am
  69   33  110 1
  70   34   43 1
  71   34  111 1
  72   34  112 1
  73   35   36 2
  74   35   37 1
  75   37   38 1
  76   37   39 1
  77   37  113 1
  78   38   40 am
  79   38  114 1
  80   39   62 1
  81   39  115 1
  82   39  116 1
  83   40   41 2
  84   40   42 1
  85   42   52 1
  86   42   53 1
  87   42  117 1
  88   43   44 1
  89   43   47 2
  90   44   45 ar
  91   44   48 ar
  92   45   46 1
  93   45   51 ar
  94   46   47 1
  95   46  118 1
  96   47  119 1
  97   48   49 ar
  98   48  120 1
  99   49   50 ar
 100   49  121 1
 101   50   51 ar
 102   50  122 1
 103   51  123 1
 104   52   70 am
 105   52  124 1
 106   53   54 1
 107   53  125 1
 108   53  126 1
 109   54   55 ar
 110   54   59 ar
 111   55   56 ar
 112   55  127 1
 113   56   57 ar
 114   56  128 1
 115   57   58 ar
 116   57   72 1
 117   58   59 ar
 118   58  129 1
 119   59  130 1
 120   60   61 2
 121   60   68 am
 122   62   63 1
 123   62  131 1
 124   62  132 1
 125   63   64 1
 126   63  133 1
 127   63  134 1
 128   64   65 1
 129   64  135 1
 130   65   66 1
 131   65   67 2
 132   66  136 1
 133   66  137 1
 134   67  138 1
 135   68   69 1
 136   68  139 1
 137   69   70 1
 138   69   74 1
 139   69  140 1
 140   70   71 2
 141   72   73 3
 142   74   75 1
 143   74   76 1
 144   74  141 1
 145   75  142 1
 146   75  143 1
 147   75  144 1
 148   76  145 1
 149   76  146 1
 150   76  147 1

#	End of record

