#	Name: ASD02030661
#	Creating user name:	WinNT
#	Creation time:	15. 06. 2019 20:15

#	Modifying user name:	WinNT
#	Modification time:	15. 06. 2019 20:15

#	Program:	/corina/corina34_cracker 3.40 0067  02.08.2006

@<TRIPOS>MOLECULE
ASD02030661
  40   43    0    0    0
SMALL
NO_CHARGES


@<TRIPOS>ATOM
   1 C1            -0.0249     1.3236     0.3426 C.2     
   2 N2            -0.0023    -0.0154     0.1702 N.am    
   3 N3             2.3403    -0.0242     0.3158 N.2     
   4 C4             2.3658     1.2883     0.4864 C.2     
   5 C5             1.1860     2.0063     0.5063 C.2     
   6 C6             1.1921    -0.6804     0.1590 C.2     
   7 O7            -1.0846     1.9299     0.3504 O.2     
   8 C8             3.6829     1.9994     0.6615 C.3     
   9 N9             4.0813     1.9494     2.0704 N.pl3   
  10 C10            4.2851     2.5056     4.1846 C.2     
  11 N11            3.7504     2.8901     3.0542 N.2     
  12 C12            4.8272     0.9858     2.6510 C.2     
  13 C13            4.9702     1.3073     3.9591 C.2     
  14 C14            4.1788     3.2279     5.5030 C.3     
  15 Cl15           5.4846    -0.4144     1.8630 Cl      
  16 F16            3.3203     4.3240     5.3664 F       
  17 F17            3.6716     2.3562     6.4727 F       
  18 F18            5.4459     3.6739     5.8939 F       
  19 C19           -1.1720    -0.6940     0.0096 C.2     
  20 C20           -1.1749    -2.0348    -0.1641 C.2     
  21 C21            0.0336    -2.7453    -0.1815 C.2     
  22 C22            1.2095    -2.0758    -0.0196 C.2     
  23 C23           -2.4802    -2.7673    -0.3391 C.3     
  24 C24           -2.4779     0.0579     0.0263 C.3     
  25 C25           -2.7631     1.0043    -1.1415 C.3     
  26 C26           -3.5232    -0.3184    -1.0257 C.3     
  27 H27            1.1976     3.0772     0.6457 H       
  28 H28            4.4431     1.5115     0.0514 H       
  29 H29            3.5789     3.0387     0.3499 H       
  30 H30            5.5166     0.7389     4.6972 H       
  31 H31            0.0325    -3.8163    -0.3202 H       
  32 H32            2.1471    -2.6116    -0.0314 H       
  33 H33           -2.7324    -2.8123    -1.3986 H       
  34 H34           -2.3846    -3.7792     0.0548 H       
  35 H35           -3.2676    -2.2405     0.1998 H       
  36 H36           -2.8386     0.3518     1.0120 H       
  37 H37           -3.3118     1.9208    -0.9242 H       
  38 H38           -2.0061     1.0832    -1.9219 H       
  39 H39           -3.2663    -1.1098    -1.7299 H       
  40 H40           -4.5719    -0.2722    -0.7322 H       
@<TRIPOS>BOND
   1    1    2 am
   2    1    5 1
   3    1    7 2
   4    2    6 1
   5    2   19 1
   6    3    4 1
   7    3    6 2
   8    4    5 2
   9    4    8 1
  10    5   27 1
  11    6   22 1
  12    8    9 1
  13    8   28 1
  14    8   29 1
  15    9   12 1
  16    9   11 1
  17   10   11 2
  18   10   13 1
  19   10   14 1
  20   12   13 2
  21   12   15 1
  22   13   30 1
  23   14   16 1
  24   14   17 1
  25   14   18 1
  26   19   20 2
  27   19   24 1
  28   20   21 1
  29   20   23 1
  30   21   22 2
  31   21   31 1
  32   22   32 1
  33   23   33 1
  34   23   34 1
  35   23   35 1
  36   24   25 1
  37   24   26 1
  38   24   36 1
  39   25   26 1
  40   25   37 1
  41   25   38 1
  42   26   39 1
  43   26   40 1

#	End of record

