#	Name: ASD01948279
#	Creating user name:	WinNT
#	Creation time:	15. 06. 2019 20:14

#	Modifying user name:	WinNT
#	Modification time:	15. 06. 2019 20:14

#	Program:	/corina/corina34_cracker 3.40 0067  02.08.2006

@<TRIPOS>MOLECULE
ASD01948279
  48   50    0    0    0
SMALL
NO_CHARGES


@<TRIPOS>ATOM
   1 C1             1.4569     4.9323    -1.2972 C.ar    
   2 C2             1.9403     4.9373    -2.5937 C.ar    
   3 C3             3.0509     4.1821    -2.9239 C.ar    
   4 C4             3.6821     3.4195    -1.9599 C.ar    
   5 C5             3.2012     3.4116    -0.6578 C.ar    
   6 C6             2.0838     4.1721    -0.3276 C.ar    
   7 N7             4.6421     0.4979    -0.3103 N.am    
   8 C8             4.8832     1.8101    -0.0286 C.2     
   9 N9             3.8381     2.6401     0.3201 N.pl3   
  10 C10            5.6465    -0.3299    -0.6527 C.2     
  11 C11            6.9596     0.1430    -0.7259 C.2     
  12 C12            7.2243     1.4685    -0.4439 C.2     
  13 C13            6.1702     2.3134    -0.0903 C.2     
  14 N14            6.4156     3.6682     0.2010 N.am    
  15 I15            0.9874     6.0909    -4.0601 I       
  16 O16            5.4088    -1.5025    -0.9008 O.2     
  17 F17            1.6125     4.1678     0.9385 F       
  18 C18            3.2734    -0.0187    -0.2333 C.3     
  19 S19            7.9408     4.2894     0.0269 S.o2    
  20 O20            7.8059     5.6565     0.3903 O.2     
  21 O21            8.7654     3.4095     0.7786 O.2     
  22 C22            8.2934     4.1336    -1.7456 C.3     
  23 C23            9.6381     4.6634    -2.2476 C.3     
  24 C24            9.3931     3.1555    -2.1639 C.3     
  25 C25            8.0803    -0.7887    -1.1094 C.3     
  26 C26            8.1589    -1.9350    -0.0990 C.3     
  27 C27            7.8164    -1.3565    -2.5054 C.3     
  28 H28            0.5919     5.5263    -1.0415 H       
  29 H29            3.4252     4.1882    -3.9369 H       
  30 H30            4.5488     2.8298    -2.2194 H       
  31 H31            3.5447     2.6887     1.2434 H       
  32 H32            8.2343     1.8472    -0.4963 H       
  33 H33            5.6914     4.2381     0.5037 H       
  34 H34            2.7599     0.1710    -1.1758 H       
  35 H35            3.3002    -1.0918    -0.0438 H       
  36 H36            2.7418     0.4801     0.5770 H       
  37 H37            7.4332     4.2370    -2.4070 H       
  38 H38            9.6626     5.1150    -3.2394 H       
  39 H39           10.3109     5.1055    -1.5128 H       
  40 H40            9.9046     2.6056    -1.3739 H       
  41 H41            9.2563     2.6150    -3.1005 H       
  42 H42            9.0229    -0.2414    -1.1120 H       
  43 H43            7.2162    -2.4823    -0.0965 H       
  44 H44            8.9695    -2.6088    -0.3764 H       
  45 H45            8.3469    -1.5305     0.8955 H       
  46 H46            7.7604    -0.5398    -3.2252 H       
  47 H47            8.6270    -2.0303    -2.7828 H       
  48 H48            6.8738    -1.9038    -2.5028 H       
@<TRIPOS>BOND
   1    1    2 ar
   2    1    6 ar
   3    1   28 1
   4    2    3 ar
   5    2   15 1
   6    3    4 ar
   7    3   29 1
   8    4    5 ar
   9    4   30 1
  10    5    6 ar
  11    5    9 1
  12    6   17 1
  13    7    8 1
  14    7   10 am
  15    7   18 1
  16    8    9 1
  17    8   13 2
  18    9   31 1
  19   10   11 1
  20   10   16 2
  21   11   12 2
  22   11   25 1
  23   12   13 1
  24   12   32 1
  25   13   14 1
  26   14   19 am
  27   14   33 1
  28   18   34 1
  29   18   35 1
  30   18   36 1
  31   19   20 2
  32   19   21 2
  33   19   22 1
  34   22   23 1
  35   22   24 1
  36   22   37 1
  37   23   24 1
  38   23   38 1
  39   23   39 1
  40   24   40 1
  41   24   41 1
  42   25   26 1
  43   25   27 1
  44   25   42 1
  45   26   43 1
  46   26   44 1
  47   26   45 1
  48   27   46 1
  49   27   47 1
  50   27   48 1

#	End of record

