#	Name: ASD01900902
#	Creating user name:	WinNT
#	Creation time:	15. 06. 2019 19:52

#	Modifying user name:	WinNT
#	Modification time:	15. 06. 2019 19:52

#	Program:	/corina/corina34_cracker 3.40 0067  02.08.2006

@<TRIPOS>MOLECULE
ASD01900902
  35   37    0    0    0
SMALL
NO_CHARGES


@<TRIPOS>ATOM
   1 C1            -0.0167     1.3778     0.0096 C.ar    
   2 C2             0.0021    -0.0041     0.0020 C.ar    
   3 C3            -1.1853    -0.7121     0.0100 C.ar    
   4 C4            -2.3930    -0.0376     0.0256 C.ar    
   5 C5            -2.4124     1.3458     0.0332 C.ar    
   6 C6            -1.2241     2.0535     0.0306 C.ar    
   7 Cl7           -1.2474     3.7893     0.0407 Cl      
   8 C8             1.2781     2.1488     0.0014 C.3     
   9 S9             1.7813     2.4674    -1.7121 S.3     
  10 C10            3.2875     3.3621    -1.5230 C.2     
  11 C11            4.0543     3.8297    -2.5183 C.2     
  12 N12            5.1439     4.4751    -2.1436 N.2     
  13 C13            5.3542     4.5871    -0.8688 C.2     
  14 S14            4.0422     3.8035     0.0071 S.3     
  15 N15            6.4413     5.2289    -0.2854 N.am    
  16 C16            7.3834     5.7993    -1.0622 C.2     
  17 O17            7.2830     5.7527    -2.2726 O.2     
  18 C18            8.5411     6.4828    -0.4409 C.ar    
  19 N19            8.6454     6.5303     0.8815 N.ar    
  20 C20            9.6573     7.1273     1.4728 C.ar    
  21 C21           10.6585     7.7330     0.7309 C.ar    
  22 C22           10.5890     7.7068    -0.6535 C.ar    
  23 C23            9.5148     7.0656    -1.2495 C.ar    
  24 Cl24          -3.8839    -0.9268     0.0351 Cl      
  25 H25            0.9447    -0.5311    -0.0105 H       
  26 H26           -1.1700    -1.7919     0.0037 H       
  27 H27           -3.3550     1.8728     0.0451 H       
  28 H28            1.1399     3.0966     0.5217 H       
  29 H29            2.0505     1.5673     0.5048 H       
  30 H30            3.7982     3.6876    -3.5578 H       
  31 H31            6.5214     5.2660     0.6806 H       
  32 H32            9.7084     7.1458     2.5514 H       
  33 H33           11.4848     8.2211     1.2262 H       
  34 H34           11.3568     8.1721    -1.2539 H       
  35 H35            9.4291     7.0257    -2.3254 H       
@<TRIPOS>BOND
   1    1    2 ar
   2    1    8 1
   3    1    6 ar
   4    2    3 ar
   5    2   25 1
   6    3    4 ar
   7    3   26 1
   8    4    5 ar
   9    4   24 1
  10    5    6 ar
  11    5   27 1
  12    6    7 1
  13    8    9 1
  14    8   28 1
  15    8   29 1
  16    9   10 1
  17   10   11 2
  18   10   14 1
  19   11   12 1
  20   11   30 1
  21   12   13 2
  22   13   14 1
  23   13   15 1
  24   15   16 am
  25   15   31 1
  26   16   17 2
  27   16   18 1
  28   18   19 ar
  29   18   23 ar
  30   19   20 ar
  31   20   21 ar
  32   20   32 1
  33   21   22 ar
  34   21   33 1
  35   22   23 ar
  36   22   34 1
  37   23   35 1

#	End of record

