#	Name: ASD01230626
#	Creating user name:	WinNT
#	Creation time:	15. 06. 2019 19:14

#	Modifying user name:	WinNT
#	Modification time:	15. 06. 2019 19:14

#	Program:	/corina/corina34_cracker 3.40 0067  02.08.2006

@<TRIPOS>MOLECULE
ASD01230626
  35   37    0    0    0
SMALL
NO_CHARGES


@<TRIPOS>ATOM
   1 C1            -0.0184     1.5028     0.0103 C.2     
   2 C2             0.0021    -0.0041     0.0020 C.3     
   3 C3             1.2427     2.2539     0.0023 C.ar    
   4 C4             1.2245     3.6552     0.0100 C.ar    
   5 C5             2.3978     4.3521     0.0030 C.ar    
   6 C6             3.6178     3.6687    -0.0123 C.ar    
   7 C7             3.6376     2.2703    -0.0204 C.ar    
   8 C8             2.4662     1.5705    -0.0072 C.ar    
   9 S9             6.2730     3.4310    -3.5711 S.o2    
  10 N10            5.3820     3.6195    -2.1896 N.am    
  11 C11            5.7958     4.3515    -1.1851 C.2     
  12 N12            6.9769     5.0372    -1.1361 N.pl3   
  13 C13            7.9915     4.9955    -2.1924 C.3     
  14 C14            7.3302     4.9134    -3.5711 C.3     
  15 C15            4.8868     4.4245    -0.0203 C.2     
  16 C16            5.2409     5.2096     1.0593 C.2     
  17 C17            6.4514     5.9107     1.0194 C.2     
  18 C18            7.2676     5.8161    -0.0463 C.2     
  19 O19            7.0454     2.2606    -3.3415 O.2     
  20 O20            5.3192     3.4917    -4.6227 O.2     
  21 O21           -1.0771     2.0950     0.0185 O.2     
  22 H22            0.0168    -0.3729     1.0276 H       
  23 H23           -0.8878    -0.3767    -0.5053 H       
  24 H24            0.8920    -0.3525    -0.5222 H       
  25 H25            0.2825     4.1833     0.0211 H       
  26 H26            2.3841     5.4320     0.0089 H       
  27 H27            4.5806     1.7440    -0.0330 H       
  28 H28            2.4819     0.4906    -0.0090 H       
  29 H29            8.6023     5.8968    -2.1399 H       
  30 H30            8.6271     4.1222    -2.0461 H       
  31 H31            8.0932     4.8254    -4.3445 H       
  32 H32            6.7237     5.8021    -3.7456 H       
  33 H33            4.5936     5.2816     1.9208 H       
  34 H34            6.7336     6.5358     1.8537 H       
  35 H35            8.1908     6.3767    -0.0424 H       
@<TRIPOS>BOND
   1    1    2 1
   2    1    3 1
   3    1   21 2
   4    2   22 1
   5    2   23 1
   6    2   24 1
   7    3    4 ar
   8    3    8 ar
   9    4    5 ar
  10    4   25 1
  11    5    6 ar
  12    5   26 1
  13    6    7 ar
  14    6   15 1
  15    7    8 ar
  16    7   27 1
  17    8   28 1
  18    9   10 am
  19    9   14 1
  20    9   19 2
  21    9   20 2
  22   10   11 2
  23   11   12 1
  24   11   15 1
  25   12   13 1
  26   12   18 1
  27   13   14 1
  28   13   29 1
  29   13   30 1
  30   14   31 1
  31   14   32 1
  32   15   16 2
  33   16   17 1
  34   16   33 1
  35   17   18 2
  36   17   34 1
  37   18   35 1

#	End of record

