#	Name: ASD01881377
#	Creating user name:	WinNT
#	Creation time:	15. 06. 2019 19:42

#	Modifying user name:	WinNT
#	Modification time:	15. 06. 2019 19:42

#	Program:	/corina/corina34_cracker 3.40 0067  02.08.2006

@<TRIPOS>MOLECULE
ASD01881377
  58   59    0    0    0
SMALL
NO_CHARGES


@<TRIPOS>ATOM
   1 C1            -0.0179     1.4705     0.0101 C.2     
   2 C2             0.0021    -0.0041     0.0020 C.ar    
   3 C3             1.2214    -0.6883    -0.0133 C.ar    
   4 C4             1.2346    -2.0690    -0.0204 C.ar    
   5 C5             0.0337    -2.7778    -0.0122 C.ar    
   6 C6            -1.1768    -2.0986     0.0025 C.ar    
   7 C7            -1.1973    -0.7207     0.0155 C.ar    
   8 O8             1.0260     2.0923     0.0035 O.2     
   9 O9            -1.1939     2.1283     0.0193 O.3     
  10 O10            2.4188    -2.7376    -0.0357 O.3     
  11 C11            3.6097    -1.9479    -0.0438 C.3     
  12 O12            0.0484    -4.1356    -0.0192 O.3     
  13 C13           -1.2176    -4.7982    -0.0102 C.3     
  14 C14           -1.0007    -6.3127    -0.0199 C.3     
  15 C15           -2.3562    -7.0222    -0.0102 C.3     
  16 C16           -2.1393    -8.5367    -0.0200 C.3     
  17 O17           -3.4053    -9.1993    -0.0109 O.3     
  18 C18           -3.3906   -10.5559    -0.0179 C.ar    
  19 C19           -4.5868   -11.2594    -0.0098 C.ar    
  20 C20           -4.5742   -12.6431    -0.0168 C.ar    
  21 C21           -3.3447   -13.3268    -0.0323 C.ar    
  22 C22           -2.1468   -12.5996    -0.0403 C.ar    
  23 C23           -2.1754   -11.2353    -0.0389 C.ar    
  24 C24           -5.8982   -10.5171     0.0072 C.3     
  25 C25           -3.3168   -14.7914    -0.0394 C.2     
  26 O26           -4.3559   -15.4180    -0.0320 O.2     
  27 C27           -1.9977   -15.5198    -0.0559 C.3     
  28 C28           -1.5369   -15.7731     1.3809 C.3     
  29 C29           -2.1623   -16.8566    -0.7818 C.3     
  30 O30           -5.7399   -13.3360    -0.0085 O.3     
  31 H31            2.1508    -0.1381    -0.0200 H       
  32 H32           -2.1047    -2.6512     0.0081 H       
  33 H33           -2.1404    -0.1948     0.0317 H       
  34 H34           -1.1564     3.0946     0.0244 H       
  35 H35            4.4804    -2.6035    -0.0559 H       
  36 H36            3.6196    -1.3144    -0.9308 H       
  37 H37            3.6376    -1.3233     0.8491 H       
  38 H38           -1.7691    -4.5159     0.8867 H       
  39 H39           -1.7864    -4.5070    -0.8932 H       
  40 H40           -0.4492    -6.5950    -0.9167 H       
  41 H41           -0.4319    -6.6039     0.8631 H       
  42 H42           -2.9077    -6.7399     0.8866 H       
  43 H43           -2.9250    -6.7309    -0.8933 H       
  44 H44           -1.5878    -8.8190    -0.9168 H       
  45 H45           -1.5705    -8.8279     0.8631 H       
  46 H46           -1.2002   -13.1194    -0.0521 H       
  47 H47           -1.2497   -10.6791    -0.0499 H       
  48 H48           -6.2246   -10.3327    -1.0163 H       
  49 H49           -6.6477   -11.1155     0.5253 H       
  50 H50           -5.7710    -9.5664     0.5249 H       
  51 H51           -1.2545   -14.9140    -0.5743 H       
  52 H52           -2.2801   -16.3790     1.8993 H       
  53 H53           -0.5828   -16.3000     1.3690 H       
  54 H54           -1.4197   -14.8208     1.8981 H       
  55 H55           -2.4906   -16.6761    -1.8054 H       
  56 H56           -1.2082   -17.3834    -0.7938 H       
  57 H57           -2.9055   -17.4624    -0.2634 H       
  58 H58           -6.0869   -13.5325    -0.8894 H       
@<TRIPOS>BOND
   1    1    2 1
   2    1    8 2
   3    1    9 1
   4    2    3 ar
   5    2    7 ar
   6    3    4 ar
   7    3   31 1
   8    4    5 ar
   9    4   10 1
  10    5    6 ar
  11    5   12 1
  12    6    7 ar
  13    6   32 1
  14    7   33 1
  15    9   34 1
  16   10   11 1
  17   11   35 1
  18   11   36 1
  19   11   37 1
  20   12   13 1
  21   13   14 1
  22   13   38 1
  23   13   39 1
  24   14   15 1
  25   14   40 1
  26   14   41 1
  27   15   16 1
  28   15   42 1
  29   15   43 1
  30   16   17 1
  31   16   44 1
  32   16   45 1
  33   17   18 1
  34   18   19 ar
  35   18   23 ar
  36   19   20 ar
  37   19   24 1
  38   20   21 ar
  39   20   30 1
  40   21   22 ar
  41   21   25 1
  42   22   23 ar
  43   22   46 1
  44   23   47 1
  45   24   48 1
  46   24   49 1
  47   24   50 1
  48   25   26 2
  49   25   27 1
  50   27   28 1
  51   27   29 1
  52   27   51 1
  53   28   52 1
  54   28   53 1
  55   28   54 1
  56   29   55 1
  57   29   56 1
  58   29   57 1
  59   30   58 1

#	End of record

