#	Name: ASD01811250
#	Creating user name:	WinNT
#	Creation time:	15. 06. 2019 19:26

#	Modifying user name:	WinNT
#	Modification time:	15. 06. 2019 19:26

#	Program:	/corina/corina34_cracker 3.40 0067  02.08.2006

@<TRIPOS>MOLECULE
ASD01811250
  60   64    0    0    0
SMALL
NO_CHARGES


@<TRIPOS>ATOM
   1 C1            -7.3363     2.1310    -3.9034 C.1     
   2 C2            -6.3587     2.9294    -3.2269 C.ar    
   3 C3            -5.1973     2.3393    -2.7243 C.ar    
   4 C4            -4.2598     3.1143    -2.0736 C.ar    
   5 C5            -4.4685     4.4733    -1.9181 C.ar    
   6 C6            -5.6174     5.0643    -2.4132 C.ar    
   7 C7            -6.5600     4.3024    -3.0719 C.ar    
   8 N8            -8.1118     1.4976    -4.4401 N.1     
   9 N9            -2.4146     7.7426    -0.1822 N.am    
  10 C10           -1.8515     7.2271    -1.4375 C.3     
  11 C11           -2.9214     6.3970    -2.1537 C.3     
  12 C12           -3.4400     5.3134    -1.2057 C.3     
  13 C13           -4.0783     5.9691     0.0210 C.3     
  14 C14           -3.0215     6.7943     0.7618 C.3     
  15 C15           -2.3704     9.0596     0.1005 C.2     
  16 C16           -3.0176     9.5749     1.3260 C.ar    
  17 C17           -3.9733    10.5899     1.2392 C.ar    
  18 C18           -4.5784    11.0720     2.3825 C.ar    
  19 C19           -4.2438    10.5552     3.6187 C.ar    
  20 C20           -3.2897     9.5408     3.7198 C.ar    
  21 C21           -2.6797     9.0453     2.5695 C.ar    
  22 O22           -1.7984     9.8239    -0.6520 O.2     
  23 C23           -4.3443    11.1602    -0.1055 C.3     
  24 C24           -4.9095    11.0877     4.8614 C.3     
  25 C25           -4.7699    12.6097     5.0310 C.3     
  26 C26           -6.2285    12.6100     5.5184 C.3     
  27 C27           -6.4203    11.3235     4.6980 C.3     
  28 C28           -2.9323     8.9889     5.0447 C.2     
  29 N29           -3.5079     9.2942     6.1860 N.2     
  30 C30           -2.9259     8.6030     7.1730 C.2     
  31 C31           -1.9514     7.8365     6.6386 C.2     
  32 N32           -1.9519     8.0708     5.2900 N.pl3   
  33 Cl33          -0.9012     6.7538     7.4980 Cl      
  34 H34           -5.0335     1.2786    -2.8444 H       
  35 H35           -3.3610     2.6593    -1.6844 H       
  36 H36           -5.7742     6.1255    -2.2881 H       
  37 H37           -7.4540     4.7658    -3.4622 H       
  38 H38           -1.5499     8.0604    -2.0722 H       
  39 H39           -0.9872     6.5995    -1.2198 H       
  40 H40           -3.7458     7.0450    -2.4513 H       
  41 H41           -2.4880     5.9298    -3.0380 H       
  42 H42           -2.6108     4.6809    -0.8888 H       
  43 H43           -4.8918     6.6212    -0.2970 H       
  44 H44           -4.4683     5.1974     0.6846 H       
  45 H45           -2.2527     6.1315     1.1589 H       
  46 H46           -3.4919     7.3421     1.5784 H       
  47 H47           -5.3165    11.8571     2.3099 H       
  48 H48           -1.9449     8.2571     2.6418 H       
  49 H49           -5.1115    10.5372    -0.5653 H       
  50 H50           -4.7270    12.1728     0.0223 H       
  51 H51           -3.4628    11.1831    -0.7462 H       
  52 H52           -4.6487    10.5229     5.7564 H       
  53 H53           -4.0529    12.8995     5.7991 H       
  54 H54           -4.6235    13.1422     4.0913 H       
  55 H55           -6.3296    12.4615     6.5935 H       
  56 H56           -6.8118    13.4539     5.1499 H       
  57 H57           -6.7250    11.5044     3.6672 H       
  58 H58           -7.0356    10.5750     5.1972 H       
  59 H59           -3.1903     8.6506     8.2190 H       
  60 H60           -1.3657     7.6632     4.6334 H       
@<TRIPOS>BOND
   1    1    2 1
   2    1    8 3
   3    2    3 ar
   4    2    7 ar
   5    3    4 ar
   6    3   34 1
   7    4    5 ar
   8    4   35 1
   9    5    6 ar
  10    5   12 1
  11    6    7 ar
  12    6   36 1
  13    7   37 1
  14    9   10 1
  15    9   14 1
  16    9   15 am
  17   10   11 1
  18   10   38 1
  19   10   39 1
  20   11   12 1
  21   11   40 1
  22   11   41 1
  23   12   13 1
  24   12   42 1
  25   13   14 1
  26   13   43 1
  27   13   44 1
  28   14   45 1
  29   14   46 1
  30   15   16 1
  31   15   22 2
  32   16   17 ar
  33   16   21 ar
  34   17   18 ar
  35   17   23 1
  36   18   19 ar
  37   18   47 1
  38   19   20 ar
  39   19   24 1
  40   20   21 ar
  41   20   28 1
  42   21   48 1
  43   23   49 1
  44   23   50 1
  45   23   51 1
  46   24   25 1
  47   24   27 1
  48   24   52 1
  49   25   26 1
  50   25   53 1
  51   25   54 1
  52   26   27 1
  53   26   55 1
  54   26   56 1
  55   27   57 1
  56   27   58 1
  57   28   29 2
  58   28   32 1
  59   29   30 1
  60   30   31 2
  61   30   59 1
  62   31   32 1
  63   31   33 1
  64   32   60 1

#	End of record

