#	Name: ASD01940718
#	Creating user name:	WinNT
#	Creation time:	15. 06. 2019 20:13

#	Modifying user name:	WinNT
#	Modification time:	15. 06. 2019 20:13

#	Program:	/corina/corina34_cracker 3.40 0067  02.08.2006

@<TRIPOS>MOLECULE
ASD01940718
  48   50    0    0    0
SMALL
NO_CHARGES


@<TRIPOS>ATOM
   1 C1             0.3565     0.3268    -1.2893 C.ar    
   2 C2             0.0617    -0.3268    -0.1070 C.ar    
   3 C3             0.8016    -0.0684     1.0343 C.ar    
   4 C4             1.8414     0.8468     0.9967 C.ar    
   5 C5             2.1423     1.5057    -0.1879 C.ar    
   6 C6             1.3959     1.2438    -1.3356 C.ar    
   7 N7             1.6954     1.9055    -2.5339 N.am    
   8 S8             0.4767     2.3341    -3.5701 S.o2    
   9 C9            -0.4742     3.5817    -2.6590 C.3     
  10 O10            1.1474     2.9264    -4.6740 O.2     
  11 O11           -0.2840     1.1443    -3.7276 O.2     
  12 F12            0.5089    -0.7094     2.1870 F       
  13 F13            2.5615     1.0980     2.1119 F       
  14 N14            3.1932     2.4324    -0.2293 N.pl3   
  15 C15            4.4463     2.0465    -0.7121 C.ar    
  16 C16            5.5124     2.9388    -0.6755 C.ar    
  17 C17            4.6317     0.7691    -1.2244 C.ar    
  18 C18            5.8721     0.3906    -1.7005 C.ar    
  19 C19            6.9288     1.2816    -1.6677 C.ar    
  20 C20            6.7500     2.5532    -1.1535 C.ar    
  21 Cl21           5.2883     4.5350    -0.0307 Cl      
  22 C22            8.2803     0.8643    -2.1877 C.3     
  23 C23           -1.7122     3.9713    -3.4693 C.3     
  24 C24           -2.5142     5.0235    -2.7008 C.3     
  25 C25           -2.9482     4.4485    -1.3511 C.3     
  26 C26           -1.7102     4.0589    -0.5408 C.3     
  27 C27           -0.9082     3.0067    -1.3092 C.3     
  28 H28           -0.2202     0.1196    -2.1786 H       
  29 H29           -0.7482    -1.0404    -0.0736 H       
  30 H30            2.6165     2.1125    -2.7566 H       
  31 H31            0.1456     4.4633    -2.4960 H       
  32 H32            3.0505     3.3416     0.0773 H       
  33 H33            3.8071     0.0722    -1.2502 H       
  34 H34            6.0166    -0.6029    -2.0987 H       
  35 H35            7.5775     3.2468    -1.1297 H       
  36 H36            8.3502     1.1016    -3.2492 H       
  37 H37            9.0595     1.3983    -1.6439 H       
  38 H38            8.4085    -0.2088    -2.0461 H       
  39 H39           -1.4030     4.3809    -4.4309 H       
  40 H40           -2.3320     3.0896    -3.6323 H       
  41 H41           -1.8944     5.9052    -2.5378 H       
  42 H42           -3.3962     5.3010    -3.2781 H       
  43 H43           -3.5196     5.1982    -0.8036 H       
  44 H44           -3.5680     3.5668    -1.5141 H       
  45 H45           -1.0904     4.9406    -0.3778 H       
  46 H46           -2.0194     3.6493     0.4208 H       
  47 H47           -1.5280     2.1250    -1.4723 H       
  48 H48           -0.0262     2.7291    -0.7320 H       
@<TRIPOS>BOND
   1    1    2 ar
   2    1    6 ar
   3    1   28 1
   4    2    3 ar
   5    2   29 1
   6    3    4 ar
   7    3   12 1
   8    4    5 ar
   9    4   13 1
  10    5    6 ar
  11    5   14 1
  12    6    7 1
  13    7    8 am
  14    7   30 1
  15    8    9 1
  16    8   10 2
  17    8   11 2
  18    9   23 1
  19    9   27 1
  20    9   31 1
  21   14   15 1
  22   14   32 1
  23   15   16 ar
  24   15   17 ar
  25   16   21 1
  26   16   20 ar
  27   17   18 ar
  28   17   33 1
  29   18   19 ar
  30   18   34 1
  31   19   20 ar
  32   19   22 1
  33   20   35 1
  34   22   36 1
  35   22   37 1
  36   22   38 1
  37   23   24 1
  38   23   39 1
  39   23   40 1
  40   24   25 1
  41   24   41 1
  42   24   42 1
  43   25   26 1
  44   25   43 1
  45   25   44 1
  46   26   27 1
  47   26   45 1
  48   26   46 1
  49   27   47 1
  50   27   48 1

#	End of record

