#	Name: ASD01814096
#	Creating user name:	WinNT
#	Creation time:	15. 06. 2019 19:31

#	Modifying user name:	WinNT
#	Modification time:	15. 06. 2019 19:31

#	Program:	/corina/corina34_cracker 3.40 0067  02.08.2006

@<TRIPOS>MOLECULE
ASD01814096
  41   44    0    0    0
SMALL
NO_CHARGES


@<TRIPOS>ATOM
   1 C1             1.1577     2.2491    -0.5151 C.ar    
   2 C2             0.7814     0.9148    -0.4997 C.ar    
   3 C3             1.7234    -0.0821    -0.3472 C.ar    
   4 C4             3.0703     0.2474    -0.2069 C.ar    
   5 C5             3.4503     1.6003    -0.2231 C.ar    
   6 C6             2.4860     2.5994    -0.3779 C.ar    
   7 N7             4.0206    -0.7399    -0.0528 N.pl3   
   8 C8             5.3257    -0.4750     0.0866 C.2     
   9 C9             5.8184     0.8144     0.0866 C.2     
  10 C10            4.8776     1.9353    -0.0738 C.2     
  11 O11            5.2626     3.0915    -0.0809 O.2     
  12 C12            7.2581     1.0640     0.2433 C.2     
  13 O13            7.7271     2.3279     0.2417 O.3     
  14 O14            8.0261     0.1308     0.3743 O.2     
  15 C15            3.5837    -2.1382    -0.0406 C.3     
  16 C16            3.4403    -2.6321    -1.4571 C.ar    
  17 C17            4.5224    -2.5815    -2.3198 C.ar    
  18 C18            4.3922    -3.0346    -3.6207 C.ar    
  19 C19            3.1765    -3.5398    -4.0590 C.ar    
  20 C20            2.0940    -3.5891    -3.1908 C.ar    
  21 C21            2.2301    -3.1402    -1.8917 C.ar    
  22 N22            3.0411    -3.9993    -5.3770 N.pl3   
  23 F23            1.3399    -1.3775    -0.3335 F       
  24 C24            1.9081    -4.5211    -5.9458 C.2     
  25 C25            2.2183    -4.8314    -7.2189 C.2     
  26 N26            3.5038    -4.5101    -7.4270 N.2     
  27 C27            4.0062    -4.0062    -6.3329 C.2     
  28 F28            5.7053    -2.0893    -1.8912 F       
  29 F29            2.8511     3.9000    -0.3939 F       
  30 H30            0.4091     3.0175    -0.6394 H       
  31 H31           -0.2607     0.6527    -0.6080 H       
  32 H32            6.0158    -1.2975     0.2032 H       
  33 H33            8.6815     2.4421     0.3478 H       
  34 H34            4.3224    -2.7452     0.4828 H       
  35 H35            2.6235    -2.2144     0.4697 H       
  36 H36            5.2356    -2.9948    -4.2941 H       
  37 H37            1.1469    -3.9817    -3.5302 H       
  38 H38            1.3879    -3.1791    -1.2167 H       
  39 H39            0.9505    -4.6571    -5.4652 H       
  40 H40            1.5479    -5.2645    -7.9466 H       
  41 H41            5.0210    -3.6587    -6.2068 H       
@<TRIPOS>BOND
   1    1    2 ar
   2    1    6 ar
   3    1   30 1
   4    2    3 ar
   5    2   31 1
   6    3    4 ar
   7    3   23 1
   8    4    5 ar
   9    4    7 1
  10    5    6 ar
  11    5   10 1
  12    6   29 1
  13    7    8 1
  14    7   15 1
  15    8    9 2
  16    8   32 1
  17    9   10 1
  18    9   12 1
  19   10   11 2
  20   12   13 1
  21   12   14 2
  22   13   33 1
  23   15   16 1
  24   15   34 1
  25   15   35 1
  26   16   17 ar
  27   16   21 ar
  28   17   18 ar
  29   17   28 1
  30   18   19 ar
  31   18   36 1
  32   19   20 ar
  33   19   22 1
  34   20   21 ar
  35   20   37 1
  36   21   38 1
  37   22   24 1
  38   22   27 1
  39   24   25 2
  40   24   39 1
  41   25   26 1
  42   25   40 1
  43   26   27 2
  44   27   41 1

#	End of record

