#	Name: ASD03910133
#	Creating user name:	WinNT
#	Creation time:	15. 06. 2019 20:47

#	Modifying user name:	WinNT
#	Modification time:	15. 06. 2019 20:47

#	Program:	/corina/corina34_cracker 3.40 0067  02.08.2006

@<TRIPOS>MOLECULE
ASD03910133
  43   45    0    0    0
SMALL
NO_CHARGES


@<TRIPOS>ATOM
   1 C1             0.0230     1.4140     0.0711 C.ar    
   2 N2            -0.0714     0.1006     0.0282 N.ar    
   3 C3             1.0058    -0.6723    -0.0470 C.ar    
   4 C4             2.2813    -0.1081    -0.0826 C.ar    
   5 C5             2.4084     1.2688    -0.0388 C.ar    
   6 C6             1.2559     2.0388     0.0392 C.ar    
   7 C7             0.8522    -2.1425    -0.0930 C.2     
   8 N8             0.1503    -2.8531    -1.0212 N.pl3   
   9 N9             0.2648    -4.2104    -0.6946 N.2     
  10 C10            1.0021    -4.3182     0.3817 C.2     
  11 C11            1.3925    -3.0411     0.7835 C.2     
  12 C12           -0.5906    -2.2968    -2.1560 C.3     
  13 C13            0.0577    -2.7572    -3.4632 C.3     
  14 C14           -2.0402    -2.7836    -2.1066 C.3     
  15 C15            3.5033    -0.9860    -0.1670 C.3     
  16 O16            4.6662    -0.1702    -0.3224 O.3     
  17 C17            5.8460    -0.8103    -0.5160 C.ar    
  18 C18            5.9185    -2.1942    -0.4419 C.ar    
  19 N19            7.0596    -2.8245    -0.6285 N.ar    
  20 C20            8.1815    -2.1869    -0.8928 C.ar    
  21 C21            8.2118    -0.8032    -0.9873 C.ar    
  22 C22            7.0166    -0.0828    -0.8013 C.ar    
  23 C23            6.9931     1.3818    -0.8967 C.2     
  24 O24            8.0131     1.9900    -1.1435 O.2     
  25 O25            9.3721    -0.1558    -1.2589 O.3     
  26 H26           -0.8752     2.0110     0.1276 H       
  27 H27            3.3826     1.7343    -0.0647 H       
  28 H28            1.3218     3.1162     0.0745 H       
  29 H29            1.2669    -5.2422     0.8742 H       
  30 H30            2.0106    -2.8041     1.6369 H       
  31 H31           -0.5709    -1.2082    -2.1044 H       
  32 H32           -0.0404    -3.8388    -3.5562 H       
  33 H33           -0.4385    -2.2737    -4.3048 H       
  34 H34            1.1136    -2.4870    -3.4600 H       
  35 H35           -2.5021    -2.4557    -1.1753 H       
  36 H36           -2.5915    -2.3698    -2.9510 H       
  37 H37           -2.0599    -3.8722    -2.1582 H       
  38 H38            3.5917    -1.5744     0.7463 H       
  39 H39            3.4117    -1.6549    -1.0228 H       
  40 H40            5.0257    -2.7628    -0.2277 H       
  41 H41            9.0917    -2.7499    -1.0377 H       
  42 H42            6.0675     1.9179    -0.7471 H       
  43 H43            9.5371    -0.0233    -2.2025 H       
@<TRIPOS>BOND
   1    1    2 ar
   2    1    6 ar
   3    1   26 1
   4    2    3 ar
   5    3    4 ar
   6    3    7 1
   7    4    5 ar
   8    4   15 1
   9    5    6 ar
  10    5   27 1
  11    6   28 1
  12    7    8 1
  13    7   11 2
  14    8    9 1
  15    8   12 1
  16    9   10 2
  17   10   11 1
  18   10   29 1
  19   11   30 1
  20   12   13 1
  21   12   14 1
  22   12   31 1
  23   13   32 1
  24   13   33 1
  25   13   34 1
  26   14   35 1
  27   14   36 1
  28   14   37 1
  29   15   16 1
  30   15   38 1
  31   15   39 1
  32   16   17 1
  33   17   18 ar
  34   17   22 ar
  35   18   19 ar
  36   18   40 1
  37   19   20 ar
  38   20   21 ar
  39   20   41 1
  40   21   22 ar
  41   21   25 1
  42   22   23 1
  43   23   24 2
  44   23   42 1
  45   25   43 1

#	End of record

