#	Name: ASD01813647
#	Creating user name:	WinNT
#	Creation time:	15. 06. 2019 19:30

#	Modifying user name:	WinNT
#	Modification time:	15. 06. 2019 19:30

#	Program:	/corina/corina34_cracker 3.40 0067  02.08.2006

@<TRIPOS>MOLECULE
ASD01813647
  50   53    0    0    0
SMALL
NO_CHARGES


@<TRIPOS>ATOM
   1 C1             0.0630     1.4789     0.3261 C.ar    
   2 C2             0.0512     0.0916     0.3235 C.ar    
   3 C3             1.2248    -0.6226     0.1974 C.ar    
   4 C4             2.4391     0.0513     0.0708 C.ar    
   5 C5             2.4463     1.4561     0.0738 C.ar    
   6 C6             1.2514     2.1642     0.2023 C.ar    
   7 N7             3.6195    -0.6499    -0.0550 N.pl3   
   8 C8             4.8101    -0.0501    -0.1779 C.2     
   9 C9             4.9440     1.3239    -0.1878 C.2     
  10 C10            3.7372     2.1567    -0.0608 C.2     
  11 O11            3.8021     3.3735    -0.0643 O.2     
  12 C12            6.2693     1.9445    -0.3237 C.2     
  13 O13            6.3871     3.2874    -0.3320 O.3     
  14 O14            7.2593     1.2469    -0.4286 O.2     
  15 C15            3.5688    -2.1140    -0.0536 C.3     
  16 C16            3.4312    -2.6132    -1.4689 C.ar    
  17 C17            4.5486    -2.7571    -2.2697 C.ar    
  18 N18            4.4417    -3.1930    -3.5086 N.ar    
  19 C19            3.2657    -3.5097    -4.0354 C.ar    
  20 C20            2.0976    -3.3887    -3.2843 C.ar    
  21 C21            2.1816    -2.9383    -1.9787 C.ar    
  22 F22            1.1977    -1.9733     0.1970 F       
  23 C23            3.1935    -3.9956    -5.4338 C.ar    
  24 C24            4.3448    -4.0222    -6.2295 C.ar    
  25 C25            4.2666    -4.4788    -7.5375 C.ar    
  26 C26            3.0569    -4.9044    -8.0504 C.ar    
  27 C27            1.9169    -4.8785    -7.2656 C.ar    
  28 C28            1.9803    -4.4334    -5.9611 C.ar    
  29 N29            5.5668    -3.5906    -5.7092 N.am    
  30 C30            6.4490    -2.9513    -6.5027 C.2     
  31 C31            7.8139    -2.5913    -5.9751 C.3     
  32 O32            6.1443    -2.6659    -7.6415 O.2     
  33 H33           -0.8644     2.0241     0.4211 H       
  34 H34           -0.8867    -0.4349     0.4216 H       
  35 H35            1.2579     3.2442     0.2042 H       
  36 H36            5.6954    -0.6615    -0.2721 H       
  37 H37            7.2791     3.6493    -0.4236 H       
  38 H38            4.4860    -2.5089     0.3833 H       
  39 H39            2.7135    -2.4474     0.5340 H       
  40 H40            5.5226    -2.5085    -1.8746 H       
  41 H41            1.1409    -3.6463    -3.7142 H       
  42 H42            1.2940    -2.8346    -1.3723 H       
  43 H43            5.1524    -4.5011    -8.1550 H       
  44 H44            3.0000    -5.2587    -9.0690 H       
  45 H45            0.9748    -5.2127    -7.6745 H       
  46 H46            1.0884    -4.4153    -5.3522 H       
  47 H47            5.7807    -3.7509    -4.7768 H       
  48 H48            7.9036    -2.9255    -4.9415 H       
  49 H49            8.5778    -3.0774    -6.5818 H       
  50 H50            7.9474    -1.5104    -6.0203 H       
@<TRIPOS>BOND
   1    1    2 ar
   2    1    6 ar
   3    1   33 1
   4    2    3 ar
   5    2   34 1
   6    3    4 ar
   7    3   22 1
   8    4    5 ar
   9    4    7 1
  10    5    6 ar
  11    5   10 1
  12    6   35 1
  13    7    8 1
  14    7   15 1
  15    8    9 2
  16    8   36 1
  17    9   10 1
  18    9   12 1
  19   10   11 2
  20   12   13 1
  21   12   14 2
  22   13   37 1
  23   15   16 1
  24   15   38 1
  25   15   39 1
  26   16   17 ar
  27   16   21 ar
  28   17   18 ar
  29   17   40 1
  30   18   19 ar
  31   19   20 ar
  32   19   23 1
  33   20   21 ar
  34   20   41 1
  35   21   42 1
  36   23   24 ar
  37   23   28 ar
  38   24   25 ar
  39   24   29 1
  40   25   26 ar
  41   25   43 1
  42   26   27 ar
  43   26   44 1
  44   27   28 ar
  45   27   45 1
  46   28   46 1
  47   29   30 am
  48   29   47 1
  49   30   31 1
  50   30   32 2
  51   31   48 1
  52   31   49 1
  53   31   50 1

#	End of record

