#	Name: ASD01940003
#	Creating user name:	WinNT
#	Creation time:	15. 06. 2019 20:11

#	Modifying user name:	WinNT
#	Modification time:	15. 06. 2019 20:11

#	Program:	/corina/corina34_cracker 3.40 0067  02.08.2006

@<TRIPOS>MOLECULE
ASD01940003
  44   46    0    0    0
SMALL
NO_CHARGES


@<TRIPOS>ATOM
   1 C1            -0.3097     1.3827     0.1274 C.ar    
   2 C2            -0.1553     0.0105     0.0631 C.ar    
   3 C3             1.1110    -0.5404     0.0014 C.ar    
   4 C4             2.2229     0.2810     0.0035 C.ar    
   5 C5             2.0685     1.6532     0.0669 C.ar    
   6 C6             0.8022     2.2040     0.1301 C.ar    
   7 C7            -1.3675    -0.8849     0.0608 C.3     
   8 C8            -1.8144    -1.1217    -1.3588 C.2     
   9 C9            -2.6658    -0.1953    -1.9958 C.2     
  10 O10           -3.0838    -0.3744    -3.2586 O.3     
  11 C11           -2.7072    -1.4523    -3.9796 C.ar    
  12 C12           -1.8579    -2.4168    -3.4059 C.ar    
  13 C13           -1.3938    -2.2250    -2.0301 C.2     
  14 C14           -3.1486    -1.6225    -5.2832 C.ar    
  15 C15           -2.7508    -2.7356    -6.0050 C.ar    
  16 C16           -1.9093    -3.6878    -5.4319 C.ar    
  17 C17           -1.4651    -3.5353    -4.1492 C.ar    
  18 O18           -3.0314     0.7925    -1.3842 O.2     
  19 C19           -0.4834    -3.2304    -1.3731 C.3     
  20 O20           -3.1844    -2.9009    -7.2814 O.3     
  21 C21           -4.2900    -3.6494    -7.4596 C.2     
  22 N22           -4.8255    -3.7783    -8.6897 N.am    
  23 O23           -4.8046    -4.2083    -6.5113 O.2     
  24 C24           -6.0280    -4.5923    -8.8834 C.3     
  25 C25           -4.2050    -3.1044    -9.8330 C.3     
  26 Cl26          -1.4231    -5.0759    -6.3539 Cl      
  27 H27           -1.2992     1.8133     0.1711 H       
  28 H28            1.2317    -1.6125    -0.0482 H       
  29 H29            3.2123    -0.1495    -0.0440 H       
  30 H30            2.9372     2.2948     0.0693 H       
  31 H31            0.6815     3.2761     0.1792 H       
  32 H32           -1.1161    -1.8379     0.5263 H       
  33 H33           -2.1723    -0.4082     0.6204 H       
  34 H34           -3.8010    -0.8893    -5.7341 H       
  35 H35           -0.8130    -4.2759    -3.7101 H       
  36 H36           -0.2718    -4.0399    -2.0717 H       
  37 H37            0.4493    -2.7439    -1.0876 H       
  38 H38           -0.9691    -3.6345    -0.4850 H       
  39 H39           -6.9130    -3.9676    -8.7627 H       
  40 H40           -6.0194    -5.0203    -9.8859 H       
  41 H41           -6.0463    -5.3947    -8.1459 H       
  42 H42           -3.4644    -3.7639   -10.2853 H       
  43 H43           -4.9705    -2.8587   -10.5691 H       
  44 H44           -3.7186    -2.1893    -9.4952 H       
@<TRIPOS>BOND
   1    1    2 ar
   2    1    6 ar
   3    1   27 1
   4    2    3 ar
   5    2    7 1
   6    3    4 ar
   7    3   28 1
   8    4    5 ar
   9    4   29 1
  10    5    6 ar
  11    5   30 1
  12    6   31 1
  13    7    8 1
  14    7   32 1
  15    7   33 1
  16    8    9 1
  17    8   13 2
  18    9   10 1
  19    9   18 2
  20   10   11 1
  21   11   12 ar
  22   11   14 ar
  23   12   13 1
  24   12   17 ar
  25   13   19 1
  26   14   15 ar
  27   14   34 1
  28   15   16 ar
  29   15   20 1
  30   16   17 ar
  31   16   26 1
  32   17   35 1
  33   19   36 1
  34   19   37 1
  35   19   38 1
  36   20   21 1
  37   21   22 am
  38   21   23 2
  39   22   24 1
  40   22   25 1
  41   24   39 1
  42   24   40 1
  43   24   41 1
  44   25   42 1
  45   25   43 1
  46   25   44 1

#	End of record

