#	Name: ASD01917041
#	Creating user name:	WinNT
#	Creation time:	15. 06. 2019 20:08

#	Modifying user name:	WinNT
#	Modification time:	15. 06. 2019 20:08

#	Program:	/corina/corina34_cracker 3.40 0067  02.08.2006

@<TRIPOS>MOLECULE
ASD01917041
  43   45    0    0    0
SMALL
NO_CHARGES


@<TRIPOS>ATOM
   1 C1            -0.0187     1.5258     0.0104 C.3     
   2 C2             0.0021    -0.0041     0.0020 C.3     
   3 C3             0.7182    -0.4975    -1.2568 C.3     
   4 C4             2.1536     0.0321    -1.2676 C.3     
   5 C5             2.1328     1.5619    -1.2592 C.3     
   6 C6             1.4167     2.0553    -0.0004 C.3     
   7 C7             3.5467     2.0836    -1.2699 C.2     
   8 N8             4.4569     1.8463    -0.3627 N.2     
   9 C9             5.5974     2.4678    -0.6915 C.2     
  10 N10            5.4155     3.1114    -1.8237 N.2     
  11 N11            4.0897     2.8684    -2.2178 N.pl3   
  12 C12            3.4257     3.3771    -3.4206 C.3     
  13 C13            3.6232     2.4030    -4.5534 C.2     
  14 O14            3.0985     2.6630    -5.7613 O.3     
  15 O15            4.2539     1.3881    -4.3745 O.2     
  16 C16            3.3287     1.6805    -6.8053 C.3     
  17 C17            6.8570     2.4357     0.0924 C.ar    
  18 C18            7.9790     3.1275    -0.3594 C.ar    
  19 C19            6.9194     1.7182     1.2853 C.ar    
  20 C20            8.0926     1.6909     2.0110 C.ar    
  21 C21            9.2074     2.3759     1.5555 C.ar    
  22 C22            9.1482     3.0949     0.3726 C.ar    
  23 F23           10.3539     2.3473     2.2696 F       
  24 H24           -0.5459     1.8868    -0.8726 H       
  25 H25           -0.5289     1.8773     0.9072 H       
  26 H26            0.5293    -0.3651     0.8851 H       
  27 H27           -1.0205    -0.3814     0.0098 H       
  28 H28            0.7330    -1.5874    -1.2628 H       
  29 H29            0.1910    -0.1364    -2.1398 H       
  30 H30            2.6808    -0.3290    -0.3846 H       
  31 H31            2.6638    -0.3194    -2.1644 H       
  32 H32            1.6057     1.9230    -2.1423 H       
  33 H33            1.4019     3.1452     0.0056 H       
  34 H34            1.9439     1.6943     0.8826 H       
  35 H35            2.3600     3.4954    -3.2248 H       
  36 H36            3.8546     4.3417    -3.6919 H       
  37 H37            4.4004     1.5689    -6.9694 H       
  38 H38            2.9059     0.7226    -6.5023 H       
  39 H39            2.8524     2.0123    -7.7279 H       
  40 H40            7.9337     3.6881    -1.2813 H       
  41 H41            6.0507     1.1845     1.6415 H       
  42 H42            8.1419     1.1351     2.9357 H       
  43 H43           10.0195     3.6274     0.0210 H       
@<TRIPOS>BOND
   1    1    2 1
   2    1    6 1
   3    1   24 1
   4    1   25 1
   5    2    3 1
   6    2   26 1
   7    2   27 1
   8    3    4 1
   9    3   28 1
  10    3   29 1
  11    4    5 1
  12    4   30 1
  13    4   31 1
  14    5    6 1
  15    5    7 1
  16    5   32 1
  17    6   33 1
  18    6   34 1
  19    7    8 2
  20    7   11 1
  21    8    9 1
  22    9   10 2
  23    9   17 1
  24   10   11 1
  25   11   12 1
  26   12   13 1
  27   12   35 1
  28   12   36 1
  29   13   14 1
  30   13   15 2
  31   14   16 1
  32   16   37 1
  33   16   38 1
  34   16   39 1
  35   17   18 ar
  36   17   19 ar
  37   18   22 ar
  38   18   40 1
  39   19   20 ar
  40   19   41 1
  41   20   21 ar
  42   20   42 1
  43   21   22 ar
  44   21   23 1
  45   22   43 1

#	End of record

