#	Name: ASD01915077
#	Creating user name:	WinNT
#	Creation time:	15. 06. 2019 20:04

#	Modifying user name:	WinNT
#	Modification time:	15. 06. 2019 20:04

#	Program:	/corina/corina34_cracker 3.40 0067  02.08.2006

@<TRIPOS>MOLECULE
ASD01915077
  41   44    0    0    0
SMALL
NO_CHARGES


@<TRIPOS>ATOM
   1 C1            -0.0168     1.3911     0.0097 C.ar    
   2 C2             0.0021    -0.0041     0.0020 C.ar    
   3 N3            -1.1446    -0.6906     0.0097 N.ar    
   4 C4            -2.3162    -0.0900     0.0245 C.ar    
   5 C5            -2.4074     1.2999     0.0329 C.ar    
   6 C6            -1.2659     2.0489     0.0306 C.ar    
   7 C7             1.3293     1.9572    -0.0001 C.2     
   8 C8             2.3061     1.0538    -0.0143 C.2     
   9 S9             1.6657    -0.5775    -0.0169 S.3     
  10 C10            1.5862     3.4168     0.0045 C.ar    
  11 C11            1.2161     4.1889     1.1050 C.ar    
  12 S12            4.0235     1.4472    -0.0286 S.o2    
  13 O13            4.6884     0.3216    -0.5854 O.2     
  14 O14            4.1305     2.7579    -0.5670 O.2     
  15 C15            4.5480     1.5546     1.6501 C.ar    
  16 C16            5.0209     0.4296     2.2996 C.ar    
  17 C17            4.4916     2.7651     2.3155 C.ar    
  18 C18            4.9033     2.8501     3.6321 C.ar    
  19 C19            5.3714     1.7233     4.2844 C.ar    
  20 C20            5.4320     0.5132     3.6165 C.ar    
  21 C21            1.4580     5.5473     1.1043 C.ar    
  22 C22            2.0670     6.1440     0.0135 C.ar    
  23 C23            2.4361     5.3821    -1.0820 C.ar    
  24 C24            2.2040     4.0220    -1.0893 C.ar    
  25 Cl25           2.3684     7.8536     0.0191 Cl      
  26 Cl26           5.8887     1.8293     5.9381 Cl      
  27 O27           -3.4502    -0.8351     0.0313 O.3     
  28 C28           -3.2934    -2.2554     0.0216 C.3     
  29 H29           -3.3739     1.7815     0.0450 H       
  30 H30           -1.3176     3.1276     0.0370 H       
  31 H31            0.7406     3.7246     1.9563 H       
  32 H32            5.0688    -0.5148     1.7779 H       
  33 H33            4.1262     3.6446     1.8062 H       
  34 H34            4.8599     3.7959     4.1516 H       
  35 H35            5.7970    -0.3668     4.1252 H       
  36 H36            1.1714     6.1463     1.9561 H       
  37 H37            2.9102     5.8526    -1.9307 H       
  38 H38            2.4926     3.4285    -1.9443 H       
  39 H39           -4.2749    -2.7294     0.0285 H       
  40 H40           -2.7514    -2.5550    -0.8754 H       
  41 H41           -2.7341    -2.5652     0.9045 H       
@<TRIPOS>BOND
   1    1    2 ar
   2    1    7 1
   3    1    6 ar
   4    2    3 ar
   5    2    9 1
   6    3    4 ar
   7    4    5 ar
   8    4   27 1
   9    5    6 ar
  10    5   29 1
  11    6   30 1
  12    7    8 2
  13    7   10 1
  14    8    9 1
  15    8   12 1
  16   10   11 ar
  17   10   24 ar
  18   11   21 ar
  19   11   31 1
  20   12   13 2
  21   12   14 2
  22   12   15 1
  23   15   16 ar
  24   15   17 ar
  25   16   20 ar
  26   16   32 1
  27   17   18 ar
  28   17   33 1
  29   18   19 ar
  30   18   34 1
  31   19   20 ar
  32   19   26 1
  33   20   35 1
  34   21   22 ar
  35   21   36 1
  36   22   23 ar
  37   22   25 1
  38   23   24 ar
  39   23   37 1
  40   24   38 1
  41   27   28 1
  42   28   39 1
  43   28   40 1
  44   28   41 1

#	End of record

