#	Name: ASD01180003
#	Creating user name:	WinNT
#	Creation time:	15. 06. 2019 19:06

#	Modifying user name:	WinNT
#	Modification time:	15. 06. 2019 19:06

#	Program:	/corina/corina34_cracker 3.40 0067  02.08.2006

@<TRIPOS>MOLECULE
ASD01180003
  43   45    0    0    0
SMALL
NO_CHARGES


@<TRIPOS>ATOM
   1 N1             0.0344     1.3894     0.1328 N.ar    
   2 C2            -0.0059     0.0900     0.3202 C.ar    
   3 C3             1.1503    -0.6841     0.2010 C.ar    
   4 N4             2.3015    -0.1285    -0.1010 N.ar    
   5 C5             2.3687     1.1929    -0.2971 C.ar    
   6 C6             3.5854     1.8173    -0.6208 C.ar    
   7 C7             3.6223     3.1648    -0.8142 C.ar    
   8 C8             2.4664     3.9387    -0.6952 C.ar    
   9 C9             1.2705     3.3670    -0.3828 C.ar    
  10 C10            1.1945     1.9790    -0.1761 C.ar    
  11 C11            1.0764    -2.1730     0.4216 C.3     
  12 C12            1.7644    -2.8953    -0.7385 C.3     
  13 C13            1.7792    -2.5297     1.7330 C.3     
  14 S14           -1.5352    -0.6848     0.7270 S.o2    
  15 O15           -1.1908    -1.6391     1.7221 O.2     
  16 O16           -2.4089     0.3967     1.0204 O.2     
  17 C17           -2.0427    -1.5160    -0.8034 C.3     
  18 C18           -3.3743    -2.2344    -0.5762 C.3     
  19 O19           -4.9963    -3.7140    -1.6367 O.3     
  20 C20           -3.8024    -2.9354    -1.8670 C.3     
  21 O21           -4.1460    -1.9619    -2.8678 O.3     
  22 C22           -5.2435    -2.5027    -3.6251 C.3     
  23 C23           -5.5560    -3.8633    -2.9642 C.3     
  24 Cl24           2.5549     5.6538    -0.9484 Cl      
  25 Cl25           5.1279     3.9311    -1.2139 Cl      
  26 H26            4.4875     1.2310    -0.7154 H       
  27 H27            0.3843     3.9778    -0.2936 H       
  28 H28            0.0322    -2.4813     0.4735 H       
  29 H29            2.8086    -2.5870    -0.7903 H       
  30 H30            1.7109    -3.9722    -0.5789 H       
  31 H31            1.2637    -2.6412    -1.6728 H       
  32 H32            1.2890    -2.0152     2.5596 H       
  33 H33            1.7257    -3.6067     1.8927 H       
  34 H34            2.8234    -2.2215     1.6812 H       
  35 H35           -2.1591    -0.7775    -1.5966 H       
  36 H36           -1.2827    -2.2422    -1.0918 H       
  37 H37           -3.2580    -2.9729     0.2170 H       
  38 H38           -4.1344    -1.5082    -0.2878 H       
  39 H39           -2.9995    -3.5782    -2.2280 H       
  40 H40           -6.1089    -1.8432    -3.5611 H       
  41 H41           -4.9515    -2.6455    -4.6655 H       
  42 H42           -5.0647    -4.6748    -3.5010 H       
  43 H43           -6.6321    -4.0291    -2.9129 H       
@<TRIPOS>BOND
   1    1    2 ar
   2    1   10 ar
   3    2    3 ar
   4    2   14 1
   5    3    4 ar
   6    3   11 1
   7    4    5 ar
   8    5    6 ar
   9    5   10 ar
  10    6    7 ar
  11    6   26 1
  12    7    8 ar
  13    7   25 1
  14    8    9 ar
  15    8   24 1
  16    9   10 ar
  17    9   27 1
  18   11   12 1
  19   11   13 1
  20   11   28 1
  21   12   29 1
  22   12   30 1
  23   12   31 1
  24   13   32 1
  25   13   33 1
  26   13   34 1
  27   14   15 2
  28   14   16 2
  29   14   17 1
  30   17   18 1
  31   17   35 1
  32   17   36 1
  33   18   20 1
  34   18   37 1
  35   18   38 1
  36   19   20 1
  37   19   23 1
  38   20   21 1
  39   20   39 1
  40   21   22 1
  41   22   23 1
  42   22   40 1
  43   22   41 1
  44   23   42 1
  45   23   43 1

#	End of record

