#	Name: ASD04590753
#	Creating user name:	WinNT
#	Creation time:	15. 06. 2019 20:51

#	Modifying user name:	WinNT
#	Modification time:	15. 06. 2019 20:51

#	Program:	/corina/corina34_cracker 3.40 0067  02.08.2006

@<TRIPOS>MOLECULE
ASD04590753
  60   65    0    0    0
SMALL
NO_CHARGES


@<TRIPOS>ATOM
   1 N1            -0.0171     1.3231    -0.0119 N.ar    
   2 C2             0.0017    -0.0035    -0.0051 C.ar    
   3 N3             1.1297    -0.6949    -0.0122 N.ar    
   4 C4             2.3049    -0.0729    -0.0266 C.ar    
   5 C5             2.3189     1.3365    -0.0341 C.ar    
   6 C6             1.1072     2.0202    -0.0262 C.ar    
   7 N7             3.6030    -0.5196    -0.0371 N.pl3   
   8 C8             4.4822     0.5494    -0.0513 C.ar    
   9 C9             3.7312     1.7384    -0.0501 C.ar    
  10 C10            5.8680     0.6416    -0.0662 C.ar    
  11 N11            6.4612     1.8178    -0.0786 N.ar    
  12 C12            5.7850     2.9530    -0.0779 C.ar    
  13 C13            4.4064     2.9583    -0.0635 C.ar    
  14 C14            4.0016    -1.9293    -0.0329 C.3     
  15 N15           -1.2023    -0.6889     0.0103 N.pl3   
  16 C16           -2.3999     0.0104     0.1310 C.ar    
  17 N17           -2.3780     1.3188     0.3317 N.ar    
  18 C18           -3.4900     2.0191     0.4517 C.ar    
  19 C19           -4.7245     1.4066     0.3713 C.ar    
  20 C20           -4.7911     0.0355     0.1615 C.ar    
  21 C21           -3.6087    -0.6709     0.0341 C.ar    
  22 S22           -6.2007     2.3548     0.5340 S.o2    
  23 N23           -6.6290     2.8593    -0.9841 N.am    
  24 C24            3.4615    -2.6261     1.2283 C.3     
  25 C25            2.5281    -3.7543     0.7430 C.3     
  26 C26            3.0196    -4.0625    -0.6931 C.3     
  27 C27            3.3775    -2.6585    -1.2406 C.3     
  28 C28           -7.5134     2.0428    -1.8294 C.3     
  29 C29           -8.6553     2.9292    -2.3379 C.3     
  30 N30           -8.0936     4.1179    -2.9931 N.3     
  31 C31           -7.3314     4.9396    -2.0434 C.3     
  32 C32           -6.1401     4.1385    -1.5204 C.3     
  33 O33           -7.2130     1.4519     0.9573 O.2     
  34 O34           -5.8486     3.5240     1.2608 O.2     
  35 H35            1.0848     3.0999    -0.0316 H       
  36 H36            6.4644    -0.2588    -0.0674 H       
  37 H37            6.3204     3.8910    -0.0883 H       
  38 H38            3.8597     3.8897    -0.0631 H       
  39 H39            5.0880    -2.0100    -0.0677 H       
  40 H40           -1.2107    -1.6561    -0.0630 H       
  41 H41           -3.4334     3.0852     0.6151 H       
  42 H42           -5.7446    -0.4672     0.0949 H       
  43 H43           -3.6237    -1.7383    -0.1299 H       
  44 H44            4.2858    -3.0456     1.8051 H       
  45 H45            2.9028    -1.9153     1.8373 H       
  46 H46            2.6307    -4.6341     1.3783 H       
  47 H47            1.4931    -3.4128     0.7269 H       
  48 H48            3.9003    -4.7044    -0.6706 H       
  49 H49            2.2244    -4.5166    -1.2845 H       
  50 H50            2.4797    -2.1400    -1.5770 H       
  51 H51            4.1000    -2.7386    -2.0529 H       
  52 H52           -6.9502     1.6496    -2.6758 H       
  53 H53           -7.9220     1.2194    -1.2436 H       
  54 H54           -9.2584     2.3704    -3.0535 H       
  55 H55           -9.2784     3.2369    -1.4983 H       
  56 H56           -7.5247     3.8594    -3.7853 H       
  57 H57           -6.9744     5.8389    -2.5454 H       
  58 H58           -7.9730     5.2194    -1.2078 H       
  59 H59           -5.6388     4.7002    -0.7322 H       
  60 H60           -5.4431     3.9445    -2.3357 H       
@<TRIPOS>BOND
   1    1    2 ar
   2    1    6 ar
   3    2    3 ar
   4    2   15 1
   5    3    4 ar
   6    4    5 ar
   7    4    7 1
   8    5    6 ar
   9    5    9 1
  10    6   35 1
  11    7    8 1
  12    7   14 1
  13    8    9 ar
  14    8   10 ar
  15    9   13 ar
  16   10   11 ar
  17   10   36 1
  18   11   12 ar
  19   12   13 ar
  20   12   37 1
  21   13   38 1
  22   14   24 1
  23   14   27 1
  24   14   39 1
  25   15   16 1
  26   15   40 1
  27   16   17 ar
  28   16   21 ar
  29   17   18 ar
  30   18   19 ar
  31   18   41 1
  32   19   20 ar
  33   19   22 1
  34   20   21 ar
  35   20   42 1
  36   21   43 1
  37   22   33 2
  38   22   34 2
  39   22   23 am
  40   23   28 1
  41   23   32 1
  42   24   25 1
  43   24   44 1
  44   24   45 1
  45   25   26 1
  46   25   46 1
  47   25   47 1
  48   26   27 1
  49   26   48 1
  50   26   49 1
  51   27   50 1
  52   27   51 1
  53   28   29 1
  54   28   52 1
  55   28   53 1
  56   29   30 1
  57   29   54 1
  58   29   55 1
  59   30   31 1
  60   30   56 1
  61   31   32 1
  62   31   57 1
  63   31   58 1
  64   32   59 1
  65   32   60 1

#	End of record

