#	Name: ASD01914199
#	Creating user name:	WinNT
#	Creation time:	15. 06. 2019 20:03

#	Modifying user name:	WinNT
#	Modification time:	15. 06. 2019 20:03

#	Program:	/corina/corina34_cracker 3.40 0067  02.08.2006

@<TRIPOS>MOLECULE
ASD01914199
  39   40    0    0    0
SMALL
NO_CHARGES


@<TRIPOS>ATOM
   1 C1            -0.0180     1.4727     0.0101 C.2     
   2 C2             0.0021    -0.0041     0.0020 C.ar    
   3 C3             0.0231    -0.7127     1.2063 C.ar    
   4 C4             0.0413    -2.0935     1.1905 C.ar    
   5 C5             0.0387    -2.7750    -0.0132 C.ar    
   6 C6             0.0179    -2.0806    -1.2094 C.ar    
   7 C7            -0.0058    -0.6998    -1.2099 C.ar    
   8 O8             1.0265     2.0948     0.0035 O.2     
   9 N9            -1.1942     2.1306     0.0193 N.am    
  10 C10           -2.4528     1.3810     0.0212 C.3     
  11 C11           -1.2140     3.5955     0.0274 C.3     
  12 C12           -1.2278     4.1133    -1.4123 C.3     
  13 C13           -1.2478     5.5851    -1.4042 C.1     
  14 C14           -1.2637     6.7590    -1.3978 C.1     
  15 C15           -1.2831     8.1908    -1.3899 C.ar    
  16 C16           -1.2983     8.8897    -2.5976 C.ar    
  17 C17           -1.3170    10.2728    -2.5732 C.ar    
  18 C18           -1.3199    10.9142    -1.3421 C.ar    
  19 C19           -1.3043    10.1597    -0.1835 C.ar    
  20 N20           -1.2921     8.8433    -0.2333 N.ar    
  21 C21           -1.3069    10.8528     1.1546 C.3     
  22 F22           -2.6266    11.0498     1.5752 F       
  23 Cl23          -0.0392     0.1695    -2.7122 Cl      
  24 Cl24           0.0270     0.1405     2.7181 Cl      
  25 H25            0.0579    -2.6425     2.1204 H       
  26 H26            0.0533    -3.8549    -0.0192 H       
  27 H27            0.0160    -2.6197    -2.1452 H       
  28 H28           -2.7601     1.1895     1.0493 H       
  29 H29           -3.2228     1.9625    -0.4858 H       
  30 H30           -2.3120     0.4332    -0.4985 H       
  31 H31           -2.1064     3.9439     0.5473 H       
  32 H32           -0.3266     3.9681     0.5390 H       
  33 H33           -0.3354     3.7649    -1.9323 H       
  34 H34           -2.1152     3.7407    -1.9240 H       
  35 H35           -1.2951     8.3585    -3.5379 H       
  36 H36           -1.3286    10.8410    -3.4916 H       
  37 H37           -1.3340    11.9929    -1.2897 H       
  38 H38           -0.7813    10.2365     1.8840 H       
  39 H39           -0.8063    11.8169     1.0655 H       
@<TRIPOS>BOND
   1    1    2 1
   2    1    8 2
   3    1    9 am
   4    2    3 ar
   5    2    7 ar
   6    3    4 ar
   7    3   24 1
   8    4    5 ar
   9    4   25 1
  10    5    6 ar
  11    5   26 1
  12    6    7 ar
  13    6   27 1
  14    7   23 1
  15    9   10 1
  16    9   11 1
  17   10   28 1
  18   10   29 1
  19   10   30 1
  20   11   12 1
  21   11   31 1
  22   11   32 1
  23   12   13 1
  24   12   33 1
  25   12   34 1
  26   13   14 3
  27   14   15 1
  28   15   16 ar
  29   15   20 ar
  30   16   17 ar
  31   16   35 1
  32   17   18 ar
  33   17   36 1
  34   18   19 ar
  35   18   37 1
  36   19   20 ar
  37   19   21 1
  38   21   22 1
  39   21   38 1
  40   21   39 1

#	End of record

