#	Name: ASD01914916
#	Creating user name:	WinNT
#	Creation time:	15. 06. 2019 20:04

#	Modifying user name:	WinNT
#	Modification time:	15. 06. 2019 20:04

#	Program:	/corina/corina34_cracker 3.40 0067  02.08.2006

@<TRIPOS>MOLECULE
ASD01914916
  56   60    0    0    0
SMALL
NO_CHARGES


@<TRIPOS>ATOM
   1 C1            -0.0033     1.3310    -0.0213 C.2     
   2 N2             0.0139     0.0589     0.3179 N.2     
   3 C3             1.3081     1.7201    -0.3419 C.2     
   4 C4             2.1160     0.6326    -0.1826 C.2     
   5 N5             1.3319    -0.4058     0.2258 N.pl3   
   6 C6            -1.2037     2.2031    -0.0639 C.ar    
   7 C7            -2.4536     1.6891     0.2746 C.ar    
   8 C8            -3.5665     2.5044     0.2333 C.ar    
   9 C9            -3.4427     3.8294    -0.1438 C.ar    
  10 C10           -2.2042     4.3448    -0.4809 C.ar    
  11 C11           -1.0837     3.5400    -0.4370 C.ar    
  12 C12            3.5775     0.5877    -0.4112 C.ar    
  13 C13            4.1835     1.5202    -1.2533 C.ar    
  14 C14            5.5466     1.4731    -1.4624 C.ar    
  15 C15            6.3119     0.5037    -0.8391 C.ar    
  16 C16            5.7166    -0.4242    -0.0033 C.ar    
  17 C17            4.3554    -0.3837     0.2189 C.ar    
  18 C18            1.7880    -1.7672     0.5172 C.3     
  19 C19            2.0660    -1.8988     1.9925 C.2     
  20 N20            2.4996    -3.0721     2.4945 N.am    
  21 O21            1.8996    -0.9490     2.7280 O.2     
  22 C22            2.7108    -4.2396     1.6320 C.3     
  23 C23            2.1387    -5.4688     2.2924 C.ar    
  24 C24            1.7275    -5.4755     3.6062 C.ar    
  25 C25            1.7946    -4.2578     4.4899 C.3     
  26 C26            2.7862    -3.2319     3.9298 C.3     
  27 C27            2.0332    -6.6241     1.5296 C.ar    
  28 C28            1.5254    -7.7828     2.0799 C.ar    
  29 C29            1.1192    -7.7932     3.4015 C.ar    
  30 C30            1.2204    -6.6454     4.1592 C.ar    
  31 C31            0.5674    -9.0555     4.0124 C.3     
  32 F32            0.5646   -10.0748     3.0541 F       
  33 F33            1.3655    -9.4366     5.0963 F       
  34 F34           -0.7403    -8.8269     4.4538 F       
  35 H35            1.6207     2.7042    -0.6584 H       
  36 H36           -2.5515     0.6544     0.5685 H       
  37 H37           -4.5359     2.1069     0.4955 H       
  38 H38           -4.3162     4.4637    -0.1755 H       
  39 H39           -2.1130     5.3801    -0.7746 H       
  40 H40           -0.1171     3.9435    -0.7000 H       
  41 H41            3.5871     2.2772    -1.7407 H       
  42 H42            6.0170     2.1943    -2.1144 H       
  43 H43            7.3784     0.4710    -1.0060 H       
  44 H44            6.3193    -1.1790     0.4799 H       
  45 H45            3.8919    -1.1084     0.8719 H       
  46 H46            1.0147    -2.4790     0.2283 H       
  47 H47            2.6994    -1.9730    -0.0441 H       
  48 H48            2.2150    -4.0780     0.6748 H       
  49 H49            3.7791    -4.3804     1.4672 H       
  50 H50            0.8048    -3.8054     4.5524 H       
  51 H51            2.1152    -4.5563     5.4879 H       
  52 H52            3.8061    -3.5904     4.0695 H       
  53 H53            2.6570    -2.2774     4.4400 H       
  54 H54            2.3515    -6.6158     0.4976 H       
  55 H55            1.4452    -8.6778     1.4808 H       
  56 H56            0.9033    -6.6558     5.1915 H       
@<TRIPOS>BOND
   1    1    2 2
   2    1    3 1
   3    1    6 1
   4    2    5 1
   5    3    4 2
   6    3   35 1
   7    4    5 1
   8    4   12 1
   9    5   18 1
  10    6    7 ar
  11    6   11 ar
  12    7    8 ar
  13    7   36 1
  14    8    9 ar
  15    8   37 1
  16    9   10 ar
  17    9   38 1
  18   10   11 ar
  19   10   39 1
  20   11   40 1
  21   12   13 ar
  22   12   17 ar
  23   13   14 ar
  24   13   41 1
  25   14   15 ar
  26   14   42 1
  27   15   16 ar
  28   15   43 1
  29   16   17 ar
  30   16   44 1
  31   17   45 1
  32   18   19 1
  33   18   46 1
  34   18   47 1
  35   19   20 am
  36   19   21 2
  37   20   22 1
  38   20   26 1
  39   22   23 1
  40   22   48 1
  41   22   49 1
  42   23   24 ar
  43   23   27 ar
  44   24   25 1
  45   24   30 ar
  46   25   26 1
  47   25   50 1
  48   25   51 1
  49   26   52 1
  50   26   53 1
  51   27   28 ar
  52   27   54 1
  53   28   29 ar
  54   28   55 1
  55   29   30 ar
  56   29   31 1
  57   30   56 1
  58   31   32 1
  59   31   33 1
  60   31   34 1

#	End of record

