#	Name: ASD03490079
#	Creating user name:	WinNT
#	Creation time:	15. 06. 2019 20:42

#	Modifying user name:	WinNT
#	Modification time:	15. 06. 2019 20:42

#	Program:	/corina/corina34_cracker 3.40 0067  02.08.2006

@<TRIPOS>MOLECULE
ASD03490079
  54   55    0    0    0
SMALL
NO_CHARGES


@<TRIPOS>ATOM
   1 C1            -0.0187     1.5251     0.0104 C.3     
   2 C2             0.0021    -0.0041     0.0020 C.3     
   3 O3             0.8082    -0.4860     1.0794 O.3     
   4 C4             2.1717    -0.0453     1.0179 C.3     
   5 C5             2.1673     1.4674     0.9218 C.2     
   6 O6             1.3496     2.0248     0.0000 O.3     
   7 C7             2.8097    -0.6079    -0.2585 C.3     
   8 C8             0.5571    -0.5127    -1.3282 C.3     
   9 C9             2.0228    -0.0930    -1.4684 C.3     
  10 O10            2.1085     1.3324    -1.5227 O.3     
  11 O11            2.9001    -0.4782     2.1970 O.3     
  12 C12            2.3906    -0.1315     3.3895 C.2     
  13 C13            3.0918    -0.5453     4.6576 C.3     
  14 O14            1.3698     0.5124     3.4461 O.2     
  15 C15            2.3094    -0.0265     5.8657 C.3     
  16 C16            3.0213    -0.4466     7.1531 C.3     
  17 C17            2.2388     0.0722     8.3612 C.3     
  18 C18            2.9507    -0.3479     9.6487 C.3     
  19 O19            2.8642     2.1462     1.6383 O.2     
  20 C20           -0.7334     2.0193     1.2697 C.3     
  21 O21           -2.0741     1.5251     1.2815 O.3     
  22 C22           -0.7537     3.5492     1.2774 C.3     
  23 O23           -1.3165     4.0119     2.5067 O.3     
  24 N24            0.4623    -1.9741    -1.3693 N.am    
  25 O25            0.4244    -1.9769    -3.5875 O.2     
  26 C26            0.4010    -2.6123    -2.5547 C.2     
  27 C27            0.3034    -4.1156    -2.5970 C.3     
  28 H28           -0.5449     1.8867    -0.8730 H       
  29 H29           -1.0151    -0.3778     0.1193 H       
  30 H30            3.8453    -0.2749    -0.3272 H       
  31 H31            2.7741    -1.6971    -0.2357 H       
  32 H32           -0.0218    -0.0889    -2.1487 H       
  33 H33            2.4382    -0.5192    -2.3816 H       
  34 H34            3.0112     1.6693    -1.6057 H       
  35 H35            3.1501    -1.6329     4.7022 H       
  36 H36            4.0982    -0.1268     4.6695 H       
  37 H37            2.2511     1.0611     5.8210 H       
  38 H38            1.3030    -0.4450     5.8538 H       
  39 H39            3.0795    -1.5342     7.1978 H       
  40 H40            4.0276    -0.0281     7.1650 H       
  41 H41            2.1806     1.1598     8.3165 H       
  42 H42            1.2324    -0.3463     8.3493 H       
  43 H43            2.3933     0.0217    10.5093 H       
  44 H44            3.0089    -1.4354     9.6933 H       
  45 H45            3.9571     0.0706     9.6606 H       
  46 H46           -0.2054     1.6585     2.1524 H       
  47 H47           -2.6040     1.8072     0.5233 H       
  48 H48            0.2641     3.9266     1.1789 H       
  49 H49           -1.3568     3.9087     0.4436 H       
  50 H50           -1.3608     4.9750     2.5811 H       
  51 H51            0.4436    -2.4823    -0.5433 H       
  52 H52            0.2955    -4.5079    -1.5801 H       
  53 H53           -0.6159    -4.4058    -3.1056 H       
  54 H54            1.1602    -4.5202    -3.1359 H       
@<TRIPOS>BOND
   1    1    2 1
   2    1    6 1
   3    1   20 1
   4    1   28 1
   5    2    3 1
   6    2    8 1
   7    2   29 1
   8    3    4 1
   9    4    5 1
  10    4    7 1
  11    4   11 1
  12    5    6 1
  13    5   19 2
  14    7    9 1
  15    7   30 1
  16    7   31 1
  17    8    9 1
  18    8   24 1
  19    8   32 1
  20    9   10 1
  21    9   33 1
  22   10   34 1
  23   11   12 1
  24   12   13 1
  25   12   14 2
  26   13   15 1
  27   13   35 1
  28   13   36 1
  29   15   16 1
  30   15   37 1
  31   15   38 1
  32   16   17 1
  33   16   39 1
  34   16   40 1
  35   17   18 1
  36   17   41 1
  37   17   42 1
  38   18   43 1
  39   18   44 1
  40   18   45 1
  41   20   21 1
  42   20   22 1
  43   20   46 1
  44   21   47 1
  45   22   23 1
  46   22   48 1
  47   22   49 1
  48   23   50 1
  49   24   26 am
  50   24   51 1
  51   25   26 2
  52   26   27 1
  53   27   52 1
  54   27   53 1
  55   27   54 1

#	End of record

