#	Name: ASD01410186
#	Creating user name:	WinNT
#	Creation time:	15. 06. 2019 19:16

#	Modifying user name:	WinNT
#	Modification time:	15. 06. 2019 19:16

#	Program:	/corina/corina34_cracker 3.40 0067  02.08.2006

@<TRIPOS>MOLECULE
ASD01410186
  47   50    0    0    0
SMALL
NO_CHARGES


@<TRIPOS>ATOM
   1 C1            -0.0171     1.4095     0.0098 C.ar    
   2 C2             0.0021    -0.0041     0.0020 C.ar    
   3 C3            -1.2095    -0.7079     0.0098 C.ar    
   4 C4            -2.3763     0.0081     0.0248 C.ar    
   5 C5            -2.3268     1.4059     0.0318 C.ar    
   6 N6            -1.1696     2.0546     0.0291 N.ar    
   7 N7             1.2938     1.8309    -0.0005 N.pl3   
   8 C8             2.1171     0.7281    -0.0142 C.2     
   9 C9             1.3602    -0.3985    -0.0131 C.2     
  10 C10            1.3821    -2.5470     1.2249 C.3     
  11 C11            1.9042    -3.9851     1.2127 C.3     
  12 C12            1.3888    -4.7042    -0.0356 C.3     
  13 C13            1.8811    -3.9722    -1.2857 C.3     
  14 C14            1.3590    -2.5341    -1.2734 C.3     
  15 C15            1.8744    -1.8150    -0.0251 C.3     
  16 C16           -3.5884     2.1752     0.0475 C.2     
  17 O17           -4.6546     1.5933     0.0542 O.2     
  18 O18           -3.5560     3.5222     0.0544 O.3     
  19 C19            5.7041    -0.0355     0.7954 C.ar    
  20 C20            6.3631     0.8346    -0.0548 C.ar    
  21 C21            5.6452     1.6705    -0.8917 C.ar    
  22 C22            4.2660     1.6404    -0.8839 C.ar    
  23 C23            3.5949     0.7650    -0.0286 C.ar    
  24 C24            4.3252    -0.0752     0.8134 C.ar    
  25 C25            1.7396     3.2264     0.0028 C.3     
  26 H26           -1.2226    -1.7878     0.0038 H       
  27 H27           -3.3279    -0.5025     0.0308 H       
  28 H28            0.2922    -2.5562     1.2350 H       
  29 H29            1.7493    -2.0347     2.1142 H       
  30 H30            2.9941    -3.9759     1.2027 H       
  31 H31            1.5534    -4.5066     2.1033 H       
  32 H32            1.7607    -5.7287    -0.0443 H       
  33 H33            0.2988    -4.7134    -0.0255 H       
  34 H34            2.9710    -3.9630    -1.2957 H       
  35 H35            1.5139    -4.4845    -2.1749 H       
  36 H36            1.7097    -2.0126    -2.1640 H       
  37 H37            0.2691    -2.5433    -1.2634 H       
  38 H38            2.9643    -1.8058    -0.0352 H       
  39 H39           -4.4068     3.9817     0.0647 H       
  40 H40            6.2704    -0.6883     1.4432 H       
  41 H41            7.4427     0.8618    -0.0650 H       
  42 H42            6.1656     2.3477    -1.5527 H       
  43 H43            3.7067     2.2939    -1.5371 H       
  44 H44            3.8120    -0.7551     1.4773 H       
  45 H45            1.8604     3.5668     1.0312 H       
  46 H46            2.6928     3.3045    -0.5201 H       
  47 H47            0.9973     3.8461    -0.5003 H       
@<TRIPOS>BOND
   1    1    2 ar
   2    1    7 1
   3    1    6 ar
   4    2    3 ar
   5    2    9 1
   6    3    4 ar
   7    3   26 1
   8    4    5 ar
   9    4   27 1
  10    5    6 ar
  11    5   16 1
  12    7    8 1
  13    7   25 1
  14    8    9 2
  15    8   23 1
  16    9   15 1
  17   10   11 1
  18   10   15 1
  19   10   28 1
  20   10   29 1
  21   11   12 1
  22   11   30 1
  23   11   31 1
  24   12   13 1
  25   12   32 1
  26   12   33 1
  27   13   14 1
  28   13   34 1
  29   13   35 1
  30   14   15 1
  31   14   36 1
  32   14   37 1
  33   15   38 1
  34   16   17 2
  35   16   18 1
  36   18   39 1
  37   19   20 ar
  38   19   24 ar
  39   19   40 1
  40   20   21 ar
  41   20   41 1
  42   21   22 ar
  43   21   42 1
  44   22   23 ar
  45   22   43 1
  46   23   24 ar
  47   24   44 1
  48   25   45 1
  49   25   46 1
  50   25   47 1

#	End of record

