#	Name: ASD03240441
#	Creating user name:	WinNT
#	Creation time:	15. 06. 2019 20:35

#	Modifying user name:	WinNT
#	Modification time:	15. 06. 2019 20:35

#	Program:	/corina/corina34_cracker 3.40 0067  02.08.2006

@<TRIPOS>MOLECULE
ASD03240441
  49   52    0    0    0
SMALL
NO_CHARGES


@<TRIPOS>ATOM
   1 C1            -0.0686     1.4772     0.0646 C.ar    
   2 C2            -0.1573     0.0990    -0.0121 C.ar    
   3 C3             0.6104     4.0503    -1.4793 C.ar    
   4 C4             1.3933     2.9270    -1.2833 C.ar    
   5 C5             1.2797     2.1474     0.0014 C.3     
   6 C6             0.7106     4.7680    -2.6540 C.ar    
   7 C7             1.6022     4.3591    -3.6432 C.ar    
   8 C8             2.3879     3.2268    -3.4409 C.ar    
   9 C9             2.2799     2.5164    -2.2624 C.ar    
  10 C10            1.7139     5.1269    -4.9091 C.2     
  11 C11           -1.3895    -0.5201     0.0453 C.ar    
  12 C12           -2.5455     0.2459     0.1808 C.ar    
  13 C13           -2.4503     1.6339     0.2576 C.ar    
  14 C14           -1.2134     2.2429     0.1934 C.ar    
  15 C15            2.5409     4.8402    -5.9557 C.2     
  16 N16            2.3370     5.7758    -6.9048 N.pl3   
  17 N17            1.3612     6.6656    -6.4397 N.2     
  18 C18            0.9810     6.2802    -5.2504 C.2     
  19 C19            1.4328     3.0983     1.1902 C.3     
  20 N20            1.4419     2.3240     2.4385 N.3     
  21 C21            1.5877     3.2061     3.6041 C.3     
  22 C22           -3.8732    -0.4140     0.2426 C.ar    
  23 C23           -5.0383     0.3459     0.3784 C.ar    
  24 C24           -3.9788    -1.8005     0.1604 C.ar    
  25 N25           -5.1570    -2.3877     0.2146 N.ar    
  26 C26           -6.2731    -1.6976     0.3474 C.ar    
  27 C27           -6.2521    -0.3172     0.4308 C.ar    
  28 H28            0.7394    -0.4938    -0.1174 H       
  29 H29           -0.0837     4.3639    -0.7136 H       
  30 H30            2.0635     1.3909     0.0379 H       
  31 H31            0.0987     5.6448    -2.8062 H       
  32 H32            3.0807     2.9055    -4.2046 H       
  33 H33            2.8888     1.6386    -2.1043 H       
  34 H34           -1.4576    -1.5963    -0.0150 H       
  35 H35           -3.3432     2.2324     0.3623 H       
  36 H36           -1.1384     3.3186     0.2532 H       
  37 H37            3.2334     4.0135    -6.0134 H       
  38 H38            2.7887     5.8243    -7.7619 H       
  39 H39            0.2391     6.7656    -4.6336 H       
  40 H40            2.3691     3.6485     1.0971 H       
  41 H41            0.5988     3.8000     1.2040 H       
  42 H42            0.6123     1.7550     2.5172 H       
  43 H43            1.5914     2.6072     4.5148 H       
  44 H44            2.5251     3.7571     3.5278 H       
  45 H45            0.7548     3.9085     3.6346 H       
  46 H46           -4.9926     1.4231     0.4412 H       
  47 H47           -3.0869    -2.3996     0.0508 H       
  48 H48           -7.2184    -2.2183     0.3874 H       
  49 H49           -7.1726     0.2371     0.5398 H       
@<TRIPOS>BOND
   1    1    2 ar
   2    1    5 1
   3    1   14 ar
   4    2   11 ar
   5    2   28 1
   6    3    4 ar
   7    3    6 ar
   8    3   29 1
   9    4    5 1
  10    4    9 ar
  11    5   19 1
  12    5   30 1
  13    6    7 ar
  14    6   31 1
  15    7    8 ar
  16    7   10 1
  17    8    9 ar
  18    8   32 1
  19    9   33 1
  20   10   15 2
  21   10   18 1
  22   11   12 ar
  23   11   34 1
  24   12   13 ar
  25   12   22 1
  26   13   14 ar
  27   13   35 1
  28   14   36 1
  29   15   16 1
  30   15   37 1
  31   16   17 1
  32   16   38 1
  33   17   18 2
  34   18   39 1
  35   19   20 1
  36   19   40 1
  37   19   41 1
  38   20   21 1
  39   20   42 1
  40   21   43 1
  41   21   44 1
  42   21   45 1
  43   22   23 ar
  44   22   24 ar
  45   23   27 ar
  46   23   46 1
  47   24   25 ar
  48   24   47 1
  49   25   26 ar
  50   26   27 ar
  51   26   48 1
  52   27   49 1

#	End of record

