#	Name: ASD01200321
#	Creating user name:	WinNT
#	Creation time:	15. 06. 2019 19:08

#	Modifying user name:	WinNT
#	Modification time:	15. 06. 2019 19:08

#	Program:	/corina/corina34_cracker 3.40 0067  02.08.2006

@<TRIPOS>MOLECULE
ASD01200321
  52   56    0    0    0
SMALL
NO_CHARGES


@<TRIPOS>ATOM
   1 C1            -1.6487     0.5463     0.6161 C.3     
   2 C2            10.7439    -1.2877     0.0962 C.ar    
   3 C3            11.9149    -1.7507     0.6780 C.ar    
   4 C4             9.5767    -1.3242     0.8404 C.ar    
   5 C5             1.7528    -1.9386     2.8864 C.ar    
   6 C6             2.1104     0.3361     3.5700 C.ar    
   7 C7             1.0885    -1.4928     1.7603 C.ar    
   8 C8             1.4453     0.7766     2.4424 C.ar    
   9 C9            11.8845    -2.2314     1.9756 C.ar    
  10 C10            6.2915    -2.5019     5.7995 C.ar    
  11 C11            4.9196    -1.4015     3.6341 C.ar    
  12 C12            2.9769    -6.0826     7.0004 C.2     
  13 C13            1.8985    -5.4295     6.5371 C.2     
  14 C14            4.1978    -2.5740     7.1572 C.3     
  15 C15            2.2659    -1.0243     3.7953 C.ar    
  16 C16            0.9346    -0.1367     1.5384 C.ar    
  17 C17            9.6188    -1.8219     2.1419 C.ar    
  18 C18            4.9394    -2.2517     5.8855 C.ar    
  19 C19            6.9777    -2.2056     4.6295 C.ar    
  20 C20            6.2928    -1.6507     3.5336 C.ar    
  21 C21            4.2535    -1.7022     4.8048 C.ar    
  22 C22            8.3802    -1.8679     2.9507 C.2     
  23 C23            4.0019    -5.0579     7.2983 C.2     
  24 C24            2.2370    -3.9891     6.5401 C.2     
  25 N25            8.2959    -2.3328     4.2349 N.pl3   
  26 N26           10.7613    -2.2552     2.6617 N.ar    
  27 N27            7.2003    -1.4688     2.5448 N.2     
  28 N28            3.4928    -3.8487     7.0016 N.am    
  29 O29            5.1137    -5.2721     7.7366 O.2     
  30 O30            1.5057    -3.0871     6.1861 O.2     
  31 O31            0.2570    -0.6209    -0.8417 O.2     
  32 O32            0.6249     1.7220    -0.1373 O.2     
  33 O33            2.9193    -1.4602     4.9040 O.3     
  34 S34            0.0867     0.4286     0.1010 S.o2    
  35 H35           -1.7352     1.2510     1.4431 H       
  36 H36           -2.2536     0.8931    -0.2217 H       
  37 H37           -1.9999    -0.4346     0.9363 H       
  38 H38           10.7432    -0.9038    -0.9132 H       
  39 H39           12.8417    -1.7359     0.1238 H       
  40 H40            8.6470    -0.9717     0.4187 H       
  41 H41            1.8689    -2.9980     3.0614 H       
  42 H42            2.5091     1.0498     4.2758 H       
  43 H43            0.6893    -2.2040     1.0523 H       
  44 H44            1.3237     1.8353     2.2667 H       
  45 H45           12.7947    -2.5925     2.4312 H       
  46 H46            6.8179    -2.9239     6.6428 H       
  47 H47            4.3831    -0.9760     2.7990 H       
  48 H48            3.0753    -7.1497     7.1341 H       
  49 H49            0.9643    -5.8708     6.2226 H       
  50 H50            4.9065    -2.6491     7.9819 H       
  51 H51            3.4774    -1.7837     7.3680 H       
  52 H52            9.0251    -2.6852     4.7686 H       
@<TRIPOS>BOND
   1    1   34 1
   2    1   35 1
   3    1   36 1
   4    1   37 1
   5    2    3 ar
   6    2    4 ar
   7    2   38 1
   8    3    9 ar
   9    3   39 1
  10    4   17 ar
  11    4   40 1
  12    5    7 ar
  13    5   15 ar
  14    5   41 1
  15    6    8 ar
  16    6   15 ar
  17    6   42 1
  18    7   16 ar
  19    7   43 1
  20    8   16 ar
  21    8   44 1
  22    9   26 ar
  23    9   45 1
  24   10   18 ar
  25   10   19 ar
  26   10   46 1
  27   11   20 ar
  28   11   21 ar
  29   11   47 1
  30   12   13 2
  31   12   23 1
  32   12   48 1
  33   13   24 1
  34   13   49 1
  35   14   18 1
  36   14   28 1
  37   14   50 1
  38   14   51 1
  39   15   33 1
  40   16   34 1
  41   17   22 1
  42   17   26 ar
  43   18   21 ar
  44   19   20 ar
  45   19   25 1
  46   20   27 1
  47   21   33 1
  48   22   25 1
  49   22   27 2
  50   23   28 am
  51   23   29 2
  52   24   28 am
  53   24   30 2
  54   25   52 1
  55   31   34 2
  56   32   34 2

#	End of record

