#	Name: ASD01816409
#	Creating user name:	WinNT
#	Creation time:	15. 06. 2019 19:35

#	Modifying user name:	WinNT
#	Modification time:	15. 06. 2019 19:35

#	Program:	/corina/corina34_cracker 3.40 0067  02.08.2006

@<TRIPOS>MOLECULE
ASD01816409
  61   67    0    0    0
SMALL
NO_CHARGES


@<TRIPOS>ATOM
   1 C1            -0.0167     1.3813     0.0096 C.ar    
   2 C2             0.0021    -0.0041     0.0020 C.ar    
   3 C3             1.1984    -0.6909    -0.0127 C.ar    
   4 C4             2.4015     0.0059    -0.0200 C.ar    
   5 C5             2.3790     1.4106    -0.0127 C.ar    
   6 C6             1.1663     2.0916     0.0022 C.ar    
   7 N7             3.6054    -0.6773    -0.0338 N.pl3   
   8 C8             4.7970    -0.0587    -0.0414 C.2     
   9 C9             4.9000     1.3102    -0.0354 C.2     
  10 C10            3.6670     2.1301    -0.0207 C.2     
  11 C11            5.9971     2.2728    -0.0404 C.2     
  12 N12            5.4246     3.4960    -0.0296 N.am    
  13 N13            4.0324     3.3799    -0.0179 N.2     
  14 O14            7.1917     2.0227    -0.0517 O.2     
  15 C15            3.5780    -2.1420    -0.0399 C.3     
  16 C16            3.5558    -2.6381    -1.4627 C.ar    
  17 C17            4.7437    -2.8876    -2.1251 C.ar    
  18 C18            4.7266    -3.3418    -3.4293 C.ar    
  19 C19            3.5151    -3.5484    -4.0751 C.ar    
  20 C20            2.3240    -3.2974    -3.4073 C.ar    
  21 C21            2.3475    -2.8482    -2.1014 C.ar    
  22 N22            3.4945    -4.0090    -5.3990 N.pl3   
  23 C23            2.3897    -4.2504    -6.1405 C.2     
  24 C24            2.7966    -4.6802    -7.3574 C.2     
  25 C25            4.1956    -4.7026    -7.3609 C.2     
  26 N26            4.6148    -4.2948    -6.1900 N.2     
  27 C27            6.1298     4.7135    -0.0298 C.2     
  28 C28            7.5251     4.8610    -0.0417 C.2     
  29 N29            7.8010     6.1398    -0.0377 N.2     
  30 N30            6.5947     6.8512    -0.0232 N.pl3   
  31 C31            5.5815     5.9559    -0.0245 C.2     
  32 C32            6.4551     8.3095    -0.0146 C.3     
  33 C33            7.2295     8.8814     1.1448 C.ar    
  34 C34            8.5543     9.2406     0.9812 C.ar    
  35 C35            9.2646     9.7652     2.0447 C.ar    
  36 C36            8.6500     9.9310     3.2718 C.ar    
  37 C37            7.3250     9.5726     3.4352 C.ar    
  38 C38            6.6134     9.0521     2.3705 C.ar    
  39 H39           -0.9602     1.9068     0.0170 H       
  40 H40           -0.9289    -0.5515     0.0080 H       
  41 H41            1.2004    -1.7709    -0.0181 H       
  42 H42            1.1506     3.1715     0.0074 H       
  43 H43            5.6983    -0.6537    -0.0521 H       
  44 H44            4.4656    -2.5241     0.4643 H       
  45 H45            2.6860    -2.4909     0.4805 H       
  46 H46            5.6859    -2.7267    -1.6222 H       
  47 H47            5.6548    -3.5359    -3.9463 H       
  48 H48            1.3801    -3.4568    -3.9073 H       
  49 H49            1.4213    -2.6528    -1.5814 H       
  50 H50            1.3665    -4.1236    -5.8190 H       
  51 H51            2.1547    -4.9572    -8.1807 H       
  52 H52            4.8219    -5.0006    -8.1888 H       
  53 H53            8.2467     4.0575    -0.0519 H       
  54 H54            4.5265     6.1871    -0.0159 H       
  55 H55            6.8440     8.7172    -0.9477 H       
  56 H56            5.4023     8.5732     0.0862 H       
  57 H57            9.0345     9.1111     0.0225 H       
  58 H58           10.2999    10.0451     1.9171 H       
  59 H59            9.2052    10.3402     4.1029 H       
  60 H60            6.8449     9.7019     4.3939 H       
  61 H61            5.5782     8.7721     2.4981 H       
@<TRIPOS>BOND
   1    1    2 ar
   2    1    6 ar
   3    1   39 1
   4    2    3 ar
   5    2   40 1
   6    3    4 ar
   7    3   41 1
   8    4    5 ar
   9    4    7 1
  10    5    6 ar
  11    5   10 1
  12    6   42 1
  13    7    8 1
  14    7   15 1
  15    8    9 2
  16    8   43 1
  17    9   10 1
  18    9   11 1
  19   10   13 2
  20   11   12 am
  21   11   14 2
  22   12   13 1
  23   12   27 1
  24   15   16 1
  25   15   44 1
  26   15   45 1
  27   16   17 ar
  28   16   21 ar
  29   17   18 ar
  30   17   46 1
  31   18   19 ar
  32   18   47 1
  33   19   20 ar
  34   19   22 1
  35   20   21 ar
  36   20   48 1
  37   21   49 1
  38   22   23 1
  39   22   26 1
  40   23   24 2
  41   23   50 1
  42   24   25 1
  43   24   51 1
  44   25   26 2
  45   25   52 1
  46   27   28 1
  47   27   31 2
  48   28   29 2
  49   28   53 1
  50   29   30 1
  51   30   31 1
  52   30   32 1
  53   31   54 1
  54   32   33 1
  55   32   55 1
  56   32   56 1
  57   33   34 ar
  58   33   38 ar
  59   34   35 ar
  60   34   57 1
  61   35   36 ar
  62   35   58 1
  63   36   37 ar
  64   36   59 1
  65   37   38 ar
  66   37   60 1
  67   38   61 1

#	End of record

