#	Name: ASD04882472
#	Creating user name:	WinNT
#	Creation time:	15. 06. 2019 20:54

#	Modifying user name:	WinNT
#	Modification time:	15. 06. 2019 20:54

#	Program:	/corina/corina34_cracker 3.40 0067  02.08.2006

@<TRIPOS>MOLECULE
ASD04882472
  75   79    0    0    0
SMALL
NO_CHARGES


@<TRIPOS>ATOM
   1 C1            -0.0215     1.4013    -0.0093 C.ar    
   2 C2            -0.0116     0.0037    -0.0052 C.ar    
   3 C3            -1.2094    -0.7018    -0.0165 C.ar    
   4 C4            -2.4097    -0.0267    -0.0323 C.ar    
   5 C5            -2.4268     1.3709    -0.0370 C.ar    
   6 C6            -1.2240     2.0826    -0.0189 C.ar    
   7 N7             1.1997    -0.6831     0.0098 N.3     
   8 C8             1.3067    -1.5361     1.2016 C.3     
   9 C9             1.3723    -1.4733    -1.2171 C.3     
  10 C10            2.7462    -2.1475    -1.1974 C.3     
  11 N11            2.8532    -3.0006    -0.0055 N.3     
  12 C12            2.6806    -2.2104     1.2214 C.3     
  13 C13           -3.7127     2.0938    -0.0549 C.2     
  14 O14           -3.7266     3.3097    -0.0589 O.2     
  15 N15           -4.8720     1.4066    -0.0667 N.am    
  16 N16            1.1863     2.1109     0.0021 N.am    
  17 C17            4.0682    -3.6894     0.0095 C.ar    
  18 C18            5.2664    -2.9871     0.0204 C.ar    
  19 C19            6.4661    -3.6714     0.0358 C.ar    
  20 C20            6.4751    -5.0540     0.0398 C.ar    
  21 C21            5.2838    -5.7565     0.0290 C.ar    
  22 C22            4.0808    -5.0787     0.0194 C.ar    
  23 C23            1.2294     3.3599     0.5068 C.2     
  24 C24            2.5092     4.0695     0.5995 C.2     
  25 O25            0.2059     3.8988     0.8856 O.2     
  26 O26            3.7109     3.5902     0.2170 O.3     
  27 C27            4.6525     4.5139     0.4498 C.2     
  28 C28            4.0665     5.6061     0.9882 C.2     
  29 C29            2.6927     5.3335     1.0826 C.2     
  30 C30           -6.1489     2.1245    -0.0845 C.3     
  31 C31           -7.1624     1.3418    -0.9218 C.3     
  32 N32           -9.4261     1.4007    -1.8458 N.am    
  33 C33           -8.4556     2.1502    -1.0441 C.3     
  34 C34          -10.3988     0.4507    -1.2933 C.3     
  35 C35           -9.5439     1.4991    -3.1812 C.2     
  36 C36          -10.6374     0.5784    -3.6763 C.3     
  37 C37          -10.8808    -0.3915    -2.4954 C.3     
  38 C38            2.7832    -5.8449     0.0082 C.3     
  39 O39           -6.6379     2.2599     1.2514 O.3     
  40 O40           -8.8717     2.2214    -3.8864 O.2     
  41 H41           -1.1987    -1.7818    -0.0133 H       
  42 H42           -3.3386    -0.5776    -0.0414 H       
  43 H43           -1.2341     3.1626    -0.0224 H       
  44 H44            1.1881    -0.9262     2.0972 H       
  45 H45            0.5279    -2.2983     1.1745 H       
  46 H46            0.5943    -2.2347    -1.2718 H       
  47 H47            1.3015    -0.8176    -2.0850 H       
  48 H48            2.8648    -2.7574    -2.0930 H       
  49 H49            3.5250    -1.3854    -1.1702 H       
  50 H50            3.4586    -1.4490     1.2760 H       
  51 H51            2.7514    -2.8661     2.0892 H       
  52 H52           -4.8609     0.4367    -0.0635 H       
  53 H53            1.9917     1.7034    -0.3533 H       
  54 H54            5.2600    -1.9071     0.0165 H       
  55 H55            7.3982    -3.1259     0.0442 H       
  56 H56            7.4146    -5.5866     0.0511 H       
  57 H57            5.2944    -6.8364     0.0319 H       
  58 H58            5.7065     4.4040     0.2416 H       
  59 H59            4.5614     6.5186     1.2861 H       
  60 H60            1.9298     5.9929     1.4693 H       
  61 H61           -6.0039     3.1131    -0.5203 H       
  62 H62           -6.7513     1.1616    -1.9150 H       
  63 H63           -7.3744     0.3884    -0.4378 H       
  64 H64           -8.8668     2.3304    -0.0508 H       
  65 H65           -8.2437     3.1036    -1.5280 H       
  66 H66           -9.9214    -0.1895    -0.5515 H       
  67 H67          -11.2372     0.9857    -0.8473 H       
  68 H68          -11.5430     1.1445    -3.8944 H       
  69 H69          -10.3057     0.0324    -4.5594 H       
  70 H70          -10.2820    -1.2958    -2.6035 H       
  71 H71          -11.9392    -0.6350    -2.4024 H       
  72 H72            2.4619    -6.0303     1.0331 H       
  73 H73            2.0221    -5.2630    -0.5116 H       
  74 H74            2.9272    -6.7957    -0.5051 H       
  75 H75           -6.7903     1.4178     1.7016 H       
@<TRIPOS>BOND
   1    1    2 ar
   2    1   16 1
   3    1    6 ar
   4    2    3 ar
   5    2    7 1
   6    3    4 ar
   7    3   41 1
   8    4    5 ar
   9    4   42 1
  10    5    6 ar
  11    5   13 1
  12    6   43 1
  13    7    8 1
  14    7    9 1
  15    8   12 1
  16    8   44 1
  17    8   45 1
  18    9   10 1
  19    9   46 1
  20    9   47 1
  21   10   11 1
  22   10   48 1
  23   10   49 1
  24   11   12 1
  25   11   17 1
  26   12   50 1
  27   12   51 1
  28   13   14 2
  29   13   15 am
  30   15   30 1
  31   15   52 1
  32   16   23 am
  33   16   53 1
  34   17   18 ar
  35   17   22 ar
  36   18   19 ar
  37   18   54 1
  38   19   20 ar
  39   19   55 1
  40   20   21 ar
  41   20   56 1
  42   21   22 ar
  43   21   57 1
  44   22   38 1
  45   23   24 1
  46   23   25 2
  47   24   26 1
  48   24   29 2
  49   26   27 1
  50   27   28 2
  51   27   58 1
  52   28   29 1
  53   28   59 1
  54   29   60 1
  55   30   31 1
  56   30   39 1
  57   30   61 1
  58   31   33 1
  59   31   62 1
  60   31   63 1
  61   32   33 1
  62   32   34 1
  63   32   35 am
  64   33   64 1
  65   33   65 1
  66   34   37 1
  67   34   66 1
  68   34   67 1
  69   35   36 1
  70   35   40 2
  71   36   37 1
  72   36   68 1
  73   36   69 1
  74   37   70 1
  75   37   71 1
  76   38   72 1
  77   38   73 1
  78   38   74 1
  79   39   75 1

#	End of record

