#	Name: ASD01816183
#	Creating user name:	WinNT
#	Creation time:	15. 06. 2019 19:34

#	Modifying user name:	WinNT
#	Modification time:	15. 06. 2019 19:34

#	Program:	/corina/corina34_cracker 3.40 0067  02.08.2006

@<TRIPOS>MOLECULE
ASD01816183
  46   50    0    0    0
SMALL
NO_CHARGES


@<TRIPOS>ATOM
   1 C1            -0.4294     0.9046     0.3113 C.ar    
   2 C2            -0.2399    -0.4675     0.2806 C.ar    
   3 C3             1.0283    -0.9999     0.1735 C.ar    
   4 C4             2.1325    -0.1586     0.0954 C.ar    
   5 C5             1.9369     1.2323     0.1266 C.ar    
   6 C6             0.6532     1.7568     0.2345 C.ar    
   7 N7             3.4077    -0.6863    -0.0114 N.pl3   
   8 C8             4.5102     0.0759    -0.0902 C.2     
   9 C9             4.4431     1.4469    -0.0698 C.2     
  10 C10            3.1223     2.1067     0.0424 C.2     
  11 C11            5.4097     2.5387    -0.1347 C.2     
  12 N12            4.6923     3.6809    -0.0655 N.am    
  13 N13            3.3294     3.3922     0.0398 N.2     
  14 C14            5.2370     4.9710    -0.0947 C.ar    
  15 C15            4.9524     5.8711     0.9265 C.ar    
  16 C16            6.0671     5.3524    -1.1403 C.ar    
  17 C17            6.6028     6.6253    -1.1665 C.ar    
  18 C18            6.3142     7.5205    -0.1526 C.ar    
  19 C19            5.4924     7.1440     0.8936 C.ar    
  20 F20            4.1494     5.5030     1.9487 F       
  21 O21            6.6221     2.4395    -0.2313 O.2     
  22 C22            3.5614    -2.1430    -0.0391 C.3     
  23 C23            3.4239    -2.6358    -1.4566 C.ar    
  24 C24            3.4802    -3.9902    -1.7259 C.ar    
  25 C25            3.3541    -4.4423    -3.0263 C.ar    
  26 C26            3.1713    -3.5398    -4.0570 C.ar    
  27 C27            3.1140    -2.1850    -3.7875 C.ar    
  28 C28            3.2358    -1.7333    -2.4870 C.ar    
  29 N29            3.6760    -4.9568    -0.6220 N.pl3   
  30 O30            3.6277    -6.1533    -0.8445 O.2     
  31 O31            3.8853    -4.5556     0.5088 O.2     
  32 H32           -1.4279     1.3085     0.3910 H       
  33 H33           -1.0932    -1.1267     0.3416 H       
  34 H34            1.1635    -2.0711     0.1506 H       
  35 H35            0.5045     2.8263     0.2588 H       
  36 H36            5.4753    -0.4021    -0.1715 H       
  37 H37            6.2940     4.6542    -1.9324 H       
  38 H38            7.2485     6.9218    -1.9799 H       
  39 H39            6.7354     8.5147    -0.1759 H       
  40 H40            5.2687     7.8456     1.6836 H       
  41 H41            4.5453    -2.4119     0.3453 H       
  42 H42            2.7913    -2.6015     0.5813 H       
  43 H43            3.3988    -5.5006    -3.2369 H       
  44 H44            3.0735    -3.8929    -5.0730 H       
  45 H45            2.9716    -1.4797    -4.5930 H       
  46 H46            3.1911    -0.6750    -2.2764 H       
@<TRIPOS>BOND
   1    1    2 ar
   2    1    6 ar
   3    1   32 1
   4    2    3 ar
   5    2   33 1
   6    3    4 ar
   7    3   34 1
   8    4    5 ar
   9    4    7 1
  10    5    6 ar
  11    5   10 1
  12    6   35 1
  13    7    8 1
  14    7   22 1
  15    8    9 2
  16    8   36 1
  17    9   10 1
  18    9   11 1
  19   10   13 2
  20   11   12 am
  21   11   21 2
  22   12   13 1
  23   12   14 1
  24   14   15 ar
  25   14   16 ar
  26   15   20 1
  27   15   19 ar
  28   16   17 ar
  29   16   37 1
  30   17   18 ar
  31   17   38 1
  32   18   19 ar
  33   18   39 1
  34   19   40 1
  35   22   23 1
  36   22   41 1
  37   22   42 1
  38   23   24 ar
  39   23   28 ar
  40   24   25 ar
  41   24   29 1
  42   25   26 ar
  43   25   43 1
  44   26   27 ar
  45   26   44 1
  46   27   28 ar
  47   27   45 1
  48   28   46 1
  49   29   30 2
  50   29   31 2

#	End of record

