#	Name: ASD02448136
#	Creating user name:	WinNT
#	Creation time:	15. 06. 2019 20:21

#	Modifying user name:	WinNT
#	Modification time:	15. 06. 2019 20:21

#	Program:	/corina/corina34_cracker 3.40 0067  02.08.2006

@<TRIPOS>MOLECULE
ASD02448136
 100  105    0    0    0
SMALL
NO_CHARGES


@<TRIPOS>ATOM
   1 C1            -0.0482    -6.5832     3.1351 C.ar    
   2 C2             0.4380    -5.4516     2.5092 C.ar    
   3 C3             0.3486    -5.3268     1.1286 C.ar    
   4 C4            -0.2294    -6.3395     0.3780 C.ar    
   5 C5            -0.7172    -7.4755     1.0094 C.ar    
   6 C6            -0.6249    -7.5942     2.3906 C.ar    
   7 N7            -1.3006    -8.4975     0.2571 N.am    
   8 C8            -1.4126    -9.9208     0.6019 C.3     
   9 C9            -2.1093   -10.6878    -0.4754 C.2     
  10 N10           -2.4928    -9.9536    -1.5293 N.am    
  11 S11           -2.0362    -8.3800    -1.2357 S.o2    
  12 O12           -2.3114   -11.8814    -0.4019 O.2     
  13 O13           -3.2267    -7.6227    -1.0661 O.2     
  14 O14           -1.0178    -8.0571    -2.1726 O.2     
  15 N15            0.8420    -4.1777     0.4947 N.pl3   
  16 C16            1.7723    -4.1405    -0.5095 C.2     
  17 C17            0.4816    -2.8942     0.7585 C.2     
  18 N18            1.1495    -2.0984    -0.0291 N.2     
  19 C19            1.9549    -2.8317    -0.8243 C.2     
  20 C20            2.8770    -2.3027    -1.8592 C.ar    
  21 C21            2.9662    -0.9288    -2.0806 C.ar    
  22 C22            3.6613    -3.1768    -2.6095 C.ar    
  23 C23            4.5177    -2.6801    -3.5707 C.ar    
  24 C24            4.5992    -1.3155    -3.7908 C.ar    
  25 C25            3.8267    -0.4420    -3.0452 C.ar    
  26 C26           -0.5260    -2.4615     1.7922 C.3     
  27 C27           -1.8701    -2.2754     1.1365 C.ar    
  28 C28           -2.7140    -3.3595     0.9752 C.ar    
  29 C29           -2.2576    -1.0202     0.7034 C.ar    
  30 C30           -3.4878    -0.8438     0.1031 C.ar    
  31 C31           -4.3399    -1.9334    -0.0668 C.ar    
  32 C32           -3.9462    -3.1949     0.3758 C.ar    
  33 C33           -5.6633    -1.7501    -0.7114 C.ar    
  34 C34           -6.5144    -2.8411    -0.8805 C.ar    
  35 C35           -6.0600    -0.4855    -1.1436 C.ar    
  36 C36           -7.2902    -0.3173    -1.7425 C.ar    
  37 C37           -8.1351    -1.4077    -1.9154 C.ar    
  38 C38           -7.7439    -2.6686    -1.4798 C.ar    
  39 Cl39           5.6793    -0.6976    -5.0012 Cl      
  40 Cl40           1.9972     0.1674    -1.1462 Cl      
  41 N41           -9.3802    -1.2352    -2.5219 N.pl3   
  42 C42          -10.2713    -2.3836    -2.7046 C.3     
  43 C43           -9.7960     0.0942    -2.9758 C.3     
  44 C44           -9.3477     0.3020    -4.4238 C.3     
  45 C45          -11.1746    -2.5284    -1.4782 C.3     
  46 C46           -9.7820     1.6904    -4.8978 C.3     
  47 C47           -9.1412     2.7569    -4.0075 C.3     
  48 C48           -9.3337     1.8982    -6.3458 C.3     
  49 C49          -11.3055     1.8044    -4.8142 C.3     
  50 C50          -12.1053    -3.7277    -1.6690 C.3     
  51 C51          -11.2708    -4.9986    -1.8407 C.3     
  52 C52          -13.0085    -3.8725    -0.4426 C.3     
  53 C53          -12.9671    -3.5113    -2.9145 C.3     
  54 H54            0.0266    -6.6797     4.2081 H       
  55 H55            0.8878    -4.6630     3.0940 H       
  56 H56           -0.3003    -6.2444    -0.6954 H       
  57 H57           -1.0037    -8.4778     2.8827 H       
  58 H58           -0.4138   -10.3331     0.7449 H       
  59 H59           -1.9740   -10.0199     1.5309 H       
  60 H60           -2.9548   -10.2792    -2.3176 H       
  61 H61            2.2655    -4.9875    -0.9631 H       
  62 H62            3.5991    -4.2414    -2.4388 H       
  63 H63            5.1260    -3.3570    -4.1522 H       
  64 H64            3.8936     0.6215    -3.2209 H       
  65 H65           -0.6022    -3.2244     2.5670 H       
  66 H66           -0.2065    -1.5202     2.2393 H       
  67 H67           -2.4079    -4.3366     1.3186 H       
  68 H68           -1.5965    -0.1765     0.8356 H       
  69 H69           -3.7896     0.1369    -0.2340 H       
  70 H70           -4.6025    -4.0428     0.2464 H       
  71 H71           -6.2107    -3.8209    -0.5426 H       
  72 H72           -5.4041     0.3619    -1.0092 H       
  73 H73           -7.5981     0.6623    -2.0772 H       
  74 H74           -8.4017    -3.5144    -1.6151 H       
  75 H75          -10.8853    -2.2294    -3.5919 H       
  76 H76           -9.6768    -3.2890    -2.8269 H       
  77 H77          -10.8814     0.1754    -2.9162 H       
  78 H78           -9.3395     0.8540    -2.3415 H       
  79 H79           -8.2624     0.2208    -4.4833 H       
  80 H80           -9.8043    -0.4578    -5.0581 H       
  81 H81          -10.5606    -2.6825    -0.5909 H       
  82 H82          -11.7691    -1.6230    -1.3559 H       
  83 H83           -8.0558     2.6756    -4.0670 H       
  84 H84           -9.4505     3.7460    -4.3452 H       
  85 H85           -9.4605     2.6088    -2.9759 H       
  86 H86           -9.7903     1.1384    -6.9801 H       
  87 H87           -9.6431     2.8873    -6.6836 H       
  88 H88           -8.2484     1.8170    -6.4054 H       
  89 H89          -11.6249     1.6563    -3.7826 H       
  90 H90          -11.6149     2.7935    -5.1519 H       
  91 H91          -11.7621     1.0446    -5.4485 H       
  92 H92          -10.6568    -5.1527    -0.9534 H       
  93 H93          -11.9338    -5.8530    -1.9767 H       
  94 H94          -10.6273    -4.8954    -2.7144 H       
  95 H95          -13.6030    -2.9672    -0.3203 H       
  96 H96          -13.6716    -4.7269    -0.5786 H       
  97 H97          -12.3945    -4.0267     0.4447 H       
  98 H98          -12.3236    -3.4082    -3.7882 H       
  99 H99          -13.6302    -4.3658    -3.0505 H       
 100 H100         -13.5616    -2.6060    -2.7922 H       
@<TRIPOS>BOND
   1    1    2 ar
   2    1    6 ar
   3    1   54 1
   4    2    3 ar
   5    2   55 1
   6    3    4 ar
   7    3   15 1
   8    4    5 ar
   9    4   56 1
  10    5    6 ar
  11    5    7 1
  12    6   57 1
  13    7    8 1
  14    7   11 am
  15    8    9 1
  16    8   58 1
  17    8   59 1
  18    9   10 am
  19    9   12 2
  20   10   11 am
  21   10   60 1
  22   11   13 2
  23   11   14 2
  24   15   16 1
  25   15   17 1
  26   16   19 2
  27   16   61 1
  28   17   18 2
  29   17   26 1
  30   18   19 1
  31   19   20 1
  32   20   21 ar
  33   20   22 ar
  34   21   40 1
  35   21   25 ar
  36   22   23 ar
  37   22   62 1
  38   23   24 ar
  39   23   63 1
  40   24   25 ar
  41   24   39 1
  42   25   64 1
  43   26   27 1
  44   26   65 1
  45   26   66 1
  46   27   28 ar
  47   27   29 ar
  48   28   32 ar
  49   28   67 1
  50   29   30 ar
  51   29   68 1
  52   30   31 ar
  53   30   69 1
  54   31   32 ar
  55   31   33 1
  56   32   70 1
  57   33   34 ar
  58   33   35 ar
  59   34   38 ar
  60   34   71 1
  61   35   36 ar
  62   35   72 1
  63   36   37 ar
  64   36   73 1
  65   37   38 ar
  66   37   41 1
  67   38   74 1
  68   41   42 1
  69   41   43 1
  70   42   45 1
  71   42   75 1
  72   42   76 1
  73   43   44 1
  74   43   77 1
  75   43   78 1
  76   44   46 1
  77   44   79 1
  78   44   80 1
  79   45   50 1
  80   45   81 1
  81   45   82 1
  82   46   47 1
  83   46   48 1
  84   46   49 1
  85   47   83 1
  86   47   84 1
  87   47   85 1
  88   48   86 1
  89   48   87 1
  90   48   88 1
  91   49   89 1
  92   49   90 1
  93   49   91 1
  94   50   51 1
  95   50   52 1
  96   50   53 1
  97   51   92 1
  98   51   93 1
  99   51   94 1
 100   52   95 1
 101   52   96 1
 102   52   97 1
 103   53   98 1
 104   53   99 1
 105   53  100 1

#	End of record

