#	Name: ASD01190158
#	Creating user name:	WinNT
#	Creation time:	15. 06. 2019 19:07

#	Modifying user name:	WinNT
#	Modification time:	15. 06. 2019 19:07

#	Program:	/corina/corina34_cracker 3.40 0067  02.08.2006

@<TRIPOS>MOLECULE
ASD01190158
  48   51    0    0    0
SMALL
NO_CHARGES


@<TRIPOS>ATOM
   1 C1            -0.0245    13.2068    -0.6939 C.2     
   2 C2             0.0852    14.6025    -1.2515 C.3     
   3 O3             0.7334    12.8414     0.1797 O.2     
   4 N4            -0.9684    12.3663    -1.1620 N.am    
   5 S5            -2.2153     9.9122    -1.1469 S.3     
   6 C6            -1.0696    11.0789    -0.6477 C.2     
   7 N7            -0.3086    10.5880     0.2796 N.2     
   8 C8            -0.5446     9.3431     0.6495 C.2     
   9 C9            -1.5531     8.7543     0.0039 C.2     
  10 C10           -2.0405     7.3449     0.2213 C.3     
  11 C11           -1.2852     6.3947    -0.7101 C.3     
  12 C12           -1.8785     4.9892    -0.5951 C.3     
  13 O13           -1.8089     6.9649     1.5793 O.3     
  14 N14           -7.4918     7.1404    -1.1394 N.pl3   
  15 N15           -7.3892     7.4789    -2.4927 N.2     
  16 C16           -6.1415     7.6782    -2.8110 C.2     
  17 C17           -5.3355     7.4663    -1.6129 C.ar    
  18 C18           -3.9650     7.5337    -1.3381 C.ar    
  19 C19           -3.5161     7.2722    -0.0760 C.ar    
  20 C20           -4.4067     6.9392     0.9373 C.ar    
  21 C21           -5.7490     6.8667     0.6933 C.ar    
  22 C22           -6.2363     7.1286    -0.5843 C.ar    
  23 C23           -8.6845     6.8639    -0.4586 C.ar    
  24 C24           -9.8475     7.5477    -0.7877 C.ar    
  25 C25          -11.0222     7.2736    -0.1152 C.ar    
  26 C26          -11.0409     6.3177     0.8866 C.ar    
  27 C27           -9.8822     5.6348     1.2164 C.ar    
  28 C28           -8.7067     5.9017     0.5425 C.ar    
  29 F29          -12.1910     6.0515     1.5435 F       
  30 F30           -1.4027     6.8440    -2.0298 F       
  31 F31            0.0655     6.3619    -0.3472 F       
  32 H32            0.7710    14.6024    -2.0987 H       
  33 H33           -0.8976    14.9410    -1.5796 H       
  34 H34            0.4616    15.2737    -0.4795 H       
  35 H35           -1.5771    12.6598    -1.8579 H       
  36 H36            0.0321     8.8416     1.4127 H       
  37 H37           -2.9133     5.0025    -0.9374 H       
  38 H38           -1.3010     4.2995    -1.2107 H       
  39 H39           -1.8440     4.6642     0.4448 H       
  40 H40           -2.2584     7.5253     2.2266 H       
  41 H41           -5.7699     7.9512    -3.7876 H       
  42 H42           -3.2664     7.7911    -2.1205 H       
  43 H43           -4.0332     6.7349     1.9298 H       
  44 H44           -6.4305     6.6064     1.4896 H       
  45 H45           -9.8333     8.2935    -1.5687 H       
  46 H46          -11.9269     7.8054    -0.3707 H       
  47 H47           -9.8988     4.8899     1.9982 H       
  48 H48           -7.8043     5.3654     0.7966 H       
@<TRIPOS>BOND
   1    1    2 1
   2    1    3 2
   3    1    4 am
   4    2   32 1
   5    2   33 1
   6    2   34 1
   7    4    6 1
   8    4   35 1
   9    5    6 1
  10    5    9 1
  11    6    7 2
  12    7    8 1
  13    8    9 2
  14    8   36 1
  15    9   10 1
  16   10   11 1
  17   10   13 1
  18   10   19 1
  19   11   12 1
  20   11   30 1
  21   11   31 1
  22   12   37 1
  23   12   38 1
  24   12   39 1
  25   13   40 1
  26   14   15 1
  27   14   22 1
  28   14   23 1
  29   15   16 2
  30   16   17 1
  31   16   41 1
  32   17   18 ar
  33   17   22 ar
  34   18   19 ar
  35   18   42 1
  36   19   20 ar
  37   20   21 ar
  38   20   43 1
  39   21   22 ar
  40   21   44 1
  41   23   24 ar
  42   23   28 ar
  43   24   25 ar
  44   24   45 1
  45   25   26 ar
  46   25   46 1
  47   26   27 ar
  48   26   29 1
  49   27   28 ar
  50   27   47 1
  51   28   48 1

#	End of record

