#	Name: ASD01238024
#	Creating user name:	WinNT
#	Creation time:	15. 06. 2019 19:15

#	Modifying user name:	WinNT
#	Modification time:	15. 06. 2019 19:15

#	Program:	/corina/corina34_cracker 3.40 0067  02.08.2006

@<TRIPOS>MOLECULE
ASD01238024
  40   43    0    0    0
SMALL
NO_CHARGES


@<TRIPOS>ATOM
   1 Cl1            0.0021    -0.0041     0.0020 Cl      
   2 C2            -0.0215     1.7317     0.0116 C.ar    
   3 C3             1.1658     2.4354     0.0040 C.ar    
   4 C4             1.1552     3.8293     0.0153 C.ar    
   5 N5             2.3697     4.5094    -0.0137 N.pl3   
   6 C6             2.5262     5.8938     0.4253 C.3     
   7 N7             1.4852     6.7167    -0.2234 N.am    
   8 S8            -0.0921     6.2609     0.0730 S.o2    
   9 O9            -0.3845     6.6411     1.4106 O.2     
  10 O10           -0.8582     6.6818    -1.0473 O.2     
  11 C11           -0.0637     4.4936     0.0397 C.ar    
  12 C12           -1.2488     3.7877     0.0407 C.ar    
  13 C13           -1.2310     2.4049     0.0210 C.ar    
  14 S14           -2.7442     1.5020     0.0213 S.o2    
  15 O15           -2.6175     0.5070     1.0278 O.2     
  16 O16           -3.7872     2.4670     0.0093 O.2     
  17 N17           -2.8351     0.6972    -1.4231 N.am    
  18 C18            2.3684     5.9712     1.9452 C.3     
  19 C19            3.4601     5.1287     2.6493 C.3     
  20 C20            4.2512     6.1792     3.4922 C.3     
  21 C21            3.0790     7.1305     3.9328 C.3     
  22 C22            2.6385     7.4238     2.4520 C.3     
  23 C23            3.9983     7.7850     1.8418 C.2     
  24 C24            4.9275     7.0679     2.4412 C.2     
  25 H25            2.1061     1.9044    -0.0104 H       
  26 H26            3.1523     4.0396    -0.3420 H       
  27 H27            3.5123     6.2591     0.1386 H       
  28 H28            1.7049     7.4752    -0.7867 H       
  29 H29           -2.1911     4.3153     0.0529 H       
  30 H30           -2.1208     0.7856    -2.0733 H       
  31 H31           -3.6027     0.1374    -1.6189 H       
  32 H32            1.3747     5.6373     2.2437 H       
  33 H33            3.0067     4.3796     3.2984 H       
  34 H34            4.1128     4.6566     1.9151 H       
  35 H35            4.8841     5.7832     4.2864 H       
  36 H36            2.3095     6.6089     4.5018 H       
  37 H37            3.4363     8.0229     4.4467 H       
  38 H38            1.8290     8.1410     2.3157 H       
  39 H39            4.1661     8.5049     1.0544 H       
  40 H40            5.9858     7.1003     2.2280 H       
@<TRIPOS>BOND
   1    1    2 1
   2    2    3 ar
   3    2   13 ar
   4    3    4 ar
   5    3   25 1
   6    4    5 1
   7    4   11 ar
   8    5    6 1
   9    5   26 1
  10    6    7 1
  11    6   18 1
  12    6   27 1
  13    7    8 am
  14    7   28 1
  15    8    9 2
  16    8   10 2
  17    8   11 1
  18   11   12 ar
  19   12   13 ar
  20   12   29 1
  21   13   14 1
  22   14   15 2
  23   14   16 2
  24   14   17 am
  25   17   30 1
  26   17   31 1
  27   18   19 1
  28   18   22 1
  29   18   32 1
  30   19   20 1
  31   19   33 1
  32   19   34 1
  33   20   21 1
  34   20   24 1
  35   20   35 1
  36   21   22 1
  37   21   36 1
  38   21   37 1
  39   22   23 1
  40   22   38 1
  41   23   24 2
  42   23   39 1
  43   24   40 1

#	End of record

