#	Name: ASD07930352
#	Creating user name:	WinNT
#	Creation time:	15. 06. 2019 21:12

#	Modifying user name:	WinNT
#	Modification time:	15. 06. 2019 21:12

#	Program:	/corina/corina34_cracker 3.40 0067  02.08.2006

@<TRIPOS>MOLECULE
ASD07930352
  56   58    0    0    0
SMALL
NO_CHARGES


@<TRIPOS>ATOM
   1 N1            -0.0058     1.4468     0.2169 N.pl3   
   2 C2             0.0021    -0.0041     0.0020 C.3     
   3 C3             0.8304    -0.6732     1.1081 C.3     
   4 S4             2.4898     0.0764     1.1076 S.o2    
   5 N5             2.1538     1.7085     1.1103 N.am    
   6 C6             1.1734     2.1401     0.2462 C.2     
   7 C7            -1.4106    -0.5271     0.0446 C.ar    
   8 C8            -2.1701    -0.3779     1.1929 C.ar    
   9 C9             2.8666     2.6382     1.9898 C.3     
  10 C10            0.6230    -0.3156    -1.3612 C.3     
  11 C11           -1.9505    -1.1506    -1.0640 C.ar    
  12 C12           -3.2468    -1.6301    -1.0254 C.ar    
  13 C13           -4.0041    -1.4864     0.1220 C.ar    
  14 C14           -3.4679    -0.8584     1.2304 C.ar    
  15 F15           -1.6449     0.2357     2.2759 F       
  16 O16            3.1484    -0.1553     2.3452 O.2     
  17 O17            3.1459    -0.1516    -0.1321 O.2     
  18 C18            4.0380     3.2631     1.2293 C.3     
  19 C19            4.8404     4.3545     1.9406 C.3     
  20 C20            5.4499     2.9658     1.7384 C.3     
  21 N21            1.3653     3.1939    -0.5322 N.2     
  22 O22            0.5931     4.6698    -2.1583 O.3     
  23 C23           -0.4824     5.0426    -3.0223 C.3     
  24 C24           -1.7198     5.3703    -2.1842 C.3     
  25 C25           -0.0785     6.2724    -3.8380 C.3     
  26 C26           -0.8004     3.8841    -3.9697 C.3     
  27 C27            0.3976     3.5958    -1.3649 C.2     
  28 O28           -0.6589     2.9925    -1.4067 O.2     
  29 N29           -3.8241    -2.2973    -2.2136 N.pl3   
  30 O30           -3.1574    -2.4238    -3.2251 O.2     
  31 O31           -4.9660    -2.7199    -2.1801 O.2     
  32 H32           -0.8470     1.9152     0.3341 H       
  33 H33            0.3535    -0.5102     2.0745 H       
  34 H34            0.9099    -1.7426     0.9122 H       
  35 H35            2.1854     3.4238     2.3168 H       
  36 H36            3.2438     2.0994     2.8590 H       
  37 H37            1.6455     0.0609    -1.3893 H       
  38 H38            0.6284    -1.3940    -1.5200 H       
  39 H39            0.0374     0.1642    -2.1454 H       
  40 H40           -1.3599    -1.2631    -1.9611 H       
  41 H41           -5.0165    -1.8613     0.1511 H       
  42 H42           -4.0596    -0.7466     2.1270 H       
  43 H43            3.9011     3.3602     0.1523 H       
  44 H44            5.2316     5.1694     1.3316 H       
  45 H45            4.5337     4.6274     2.9504 H       
  46 H46            5.5442     2.3250     2.6152 H       
  47 H47            6.2421     2.8670     0.9963 H       
  48 H48           -1.4932     6.1957    -1.5092 H       
  49 H49           -2.5401     5.6546    -2.8432 H       
  50 H50           -2.0075     4.4942    -1.6030 H       
  51 H51            0.8030     6.0389    -4.4351 H       
  52 H52           -0.8989     6.5567    -4.4970 H       
  53 H53            0.1480     7.0977    -3.1630 H       
  54 H54           -1.0881     3.0079    -3.3886 H       
  55 H55           -1.6207     4.1684    -4.6288 H       
  56 H56            0.0811     3.6506    -4.5668 H       
@<TRIPOS>BOND
   1    1    2 1
   2    1    6 1
   3    1   32 1
   4    2    3 1
   5    2    7 1
   6    2   10 1
   7    3    4 1
   8    3   33 1
   9    3   34 1
  10    4    5 am
  11    4   16 2
  12    4   17 2
  13    5    6 1
  14    5    9 1
  15    6   21 2
  16    7   11 ar
  17    7    8 ar
  18    8   15 1
  19    8   14 ar
  20    9   18 1
  21    9   35 1
  22    9   36 1
  23   10   37 1
  24   10   38 1
  25   10   39 1
  26   11   12 ar
  27   11   40 1
  28   12   13 ar
  29   12   29 1
  30   13   14 ar
  31   13   41 1
  32   14   42 1
  33   18   19 1
  34   18   20 1
  35   18   43 1
  36   19   20 1
  37   19   44 1
  38   19   45 1
  39   20   46 1
  40   20   47 1
  41   21   27 1
  42   22   23 1
  43   22   27 1
  44   23   24 1
  45   23   25 1
  46   23   26 1
  47   24   48 1
  48   24   49 1
  49   24   50 1
  50   25   51 1
  51   25   52 1
  52   25   53 1
  53   26   54 1
  54   26   55 1
  55   26   56 1
  56   27   28 2
  57   29   30 2
  58   29   31 2

#	End of record

