#	Name: ASD03240681
#	Creating user name:	WinNT
#	Creation time:	15. 06. 2019 20:35

#	Modifying user name:	WinNT
#	Modification time:	15. 06. 2019 20:35

#	Program:	/corina/corina34_cracker 3.40 0067  02.08.2006

@<TRIPOS>MOLECULE
ASD03240681
  61   66    0    0    0
SMALL
NO_CHARGES


@<TRIPOS>ATOM
   1 C1            -0.6129     1.0054    -0.1077 C.3     
   2 C2            -0.0260    -0.4141    -0.0334 C.3     
   3 C3             1.2077     0.2158     0.6344 C.3     
   4 C4             0.8359     1.5205    -0.0897 C.3     
   5 O5            -1.3018     1.2767    -1.3300 O.3     
   6 C6             2.5133    -0.3793     0.1737 C.ar    
   7 C7             3.5961    -0.4143     1.0343 C.ar    
   8 C8             4.7940    -0.9583     0.6186 C.ar    
   9 C9             4.9121    -1.4735    -0.6723 C.ar    
  10 C10            3.8167    -1.4353    -1.5352 C.ar    
  11 C11            2.6226    -0.8935    -1.1060 C.ar    
  12 C12           10.8868    -1.9957    -1.0344 C.2     
  13 N13           10.9567    -3.0480    -1.8689 N.2     
  14 C14            9.8854    -3.6312    -2.3414 C.2     
  15 C15            8.5710    -3.1257    -1.9509 C.ar    
  16 C16            8.5044    -2.0209    -1.0751 C.ar    
  17 N17            9.6901    -1.4703    -0.6281 N.pl3   
  18 C18            7.3895    -3.7071    -2.4223 C.ar    
  19 C19            6.1814    -3.1615    -2.0001 C.ar    
  20 C20            6.1950    -2.0583    -1.1250 C.ar    
  21 N21            7.3348    -1.5344    -0.6989 N.ar    
  22 N22            9.9616    -0.3953     0.2269 N.2     
  23 C23           11.2614    -0.2646     0.3419 C.2     
  24 C24           11.8815    -1.2379    -0.4314 C.2     
  25 C25            4.8956    -3.7341    -2.4661 C.ar    
  26 C26            4.6812    -3.9582    -3.8251 C.ar    
  27 C27            3.4826    -4.4918    -4.2530 C.ar    
  28 C28            2.4947    -4.8037    -3.3362 C.ar    
  29 C29            2.7017    -4.5830    -1.9864 C.ar    
  30 C30            3.8987    -4.0557    -1.5463 C.ar    
  31 C31           11.9673     0.7756     1.1731 C.3     
  32 C32           -1.4194     1.4007     1.1309 C.3     
  33 C33           -2.5692     0.4107     1.3282 C.3     
  34 N34            1.1042     0.3045     2.0970 N.3     
  35 H35           -0.5834    -1.0833     0.6220 H       
  36 H36            0.1818    -0.8523    -1.0096 H       
  37 H37            1.2794     1.6113    -1.0813 H       
  38 H38            0.9744     2.4132     0.5203 H       
  39 H39           -1.6732     2.1680    -1.3826 H       
  40 H40            3.5036    -0.0147     2.0333 H       
  41 H41            5.6387    -0.9848     1.2911 H       
  42 H42            3.9021    -1.8323    -2.5360 H       
  43 H43            1.7726    -0.8670    -1.7718 H       
  44 H44            9.9711    -4.4746    -3.0105 H       
  45 H45            7.4143    -4.5528    -3.0937 H       
  46 H46           12.9463    -1.3806    -0.5421 H       
  47 H47            5.4514    -3.7144    -4.5418 H       
  48 H48            3.3153    -4.6659    -5.3057 H       
  49 H49            1.5581    -5.2208    -3.6757 H       
  50 H50            1.9268    -4.8281    -1.2752 H       
  51 H51            4.0610    -3.8880    -0.4918 H       
  52 H52           12.1309     0.3876     2.1785 H       
  53 H53           12.9271     1.0160     0.7158 H       
  54 H54           11.3546     1.6755     1.2262 H       
  55 H55           -0.7712     1.3841     2.0070 H       
  56 H56           -1.8231     2.4043     0.9965 H       
  57 H57           -3.1437     0.6924     2.2106 H       
  58 H58           -3.2174     0.4273     0.4521 H       
  59 H59           -2.1655    -0.5928     1.4626 H       
  60 H60            2.0164     0.2703     2.5268 H       
  61 H61            0.6047     1.1362     2.3744 H       
@<TRIPOS>BOND
   1    1    2 1
   2    1    4 1
   3    1    5 1
   4    1   32 1
   5    2    3 1
   6    2   35 1
   7    2   36 1
   8    3    4 1
   9    3    6 1
  10    3   34 1
  11    4   37 1
  12    4   38 1
  13    5   39 1
  14    6    7 ar
  15    6   11 ar
  16    7    8 ar
  17    7   40 1
  18    8    9 ar
  19    8   41 1
  20    9   10 ar
  21    9   20 1
  22   10   11 ar
  23   10   42 1
  24   11   43 1
  25   12   13 1
  26   12   17 1
  27   12   24 2
  28   13   14 2
  29   14   15 1
  30   14   44 1
  31   15   16 ar
  32   15   18 ar
  33   16   17 1
  34   16   21 ar
  35   17   22 1
  36   18   19 ar
  37   18   45 1
  38   19   20 ar
  39   19   25 1
  40   20   21 ar
  41   22   23 2
  42   23   24 1
  43   23   31 1
  44   24   46 1
  45   25   26 ar
  46   25   30 ar
  47   26   27 ar
  48   26   47 1
  49   27   28 ar
  50   27   48 1
  51   28   29 ar
  52   28   49 1
  53   29   30 ar
  54   29   50 1
  55   30   51 1
  56   31   52 1
  57   31   53 1
  58   31   54 1
  59   32   33 1
  60   32   55 1
  61   32   56 1
  62   33   57 1
  63   33   58 1
  64   33   59 1
  65   34   60 1
  66   34   61 1

#	End of record

