#	Name: ASD05143123
#	Creating user name:	WinNT
#	Creation time:	15. 06. 2019 20:57

#	Modifying user name:	WinNT
#	Modification time:	15. 06. 2019 20:57

#	Program:	/corina/corina34_cracker 3.40 0067  02.08.2006

@<TRIPOS>MOLECULE
ASD05143123
 151  154    0    0    0
SMALL
NO_CHARGES


@<TRIPOS>ATOM
   1 C1             1.0698     3.1028     1.9335 C.2     
   2 C2             1.3710     1.6395     2.1309 C.3     
   3 N3             1.9622     4.0334     2.3260 N.am    
   4 O4             0.0265     3.4428     1.4170 O.2     
   5 C5             1.6693     5.4560     2.1341 C.3     
   6 C6             1.4710     5.7394     0.6437 C.3     
   7 C7             0.4135     5.8161     2.8854 C.2     
   8 C8             2.7841     5.4924    -0.1015 C.3     
   9 C9             2.5858     5.7758    -1.5919 C.3     
  10 N10            3.8432     5.5393    -2.3055 N.pl3   
  11 C11            3.9082     5.7302    -3.6655 C.2     
  12 N12            2.7932     6.1430    -4.3558 N.pl3   
  13 N13            5.0269     5.5198    -4.3004 N.2     
  14 O14           -0.3697     4.9483     3.2086 O.2     
  15 N15            0.1608     7.1025     3.1981 N.am    
  16 C16           -1.0600     7.4526     3.9284 C.3     
  17 C17           -0.8432     8.7646     4.6849 C.3     
  18 C18            0.4391     8.6693     5.5139 C.3     
  19 C19            1.2154     9.9831     5.4052 C.3     
  20 N20            1.3000    10.3863     3.9950 N.3     
  21 C21            2.2332    11.5075     3.8225 C.3     
  22 C22            1.8015    12.3489     2.6197 C.3     
  23 C23            2.9858    13.1844     2.1298 C.3     
  24 C24            2.4665    14.4355     1.4183 C.3     
  25 N25            2.3769    14.1593    -0.0293 N.am    
  26 C26            3.4157    15.5817     1.6556 C.2     
  27 N27            3.3700    16.2653     2.8162 N.am    
  28 O28            4.2208    15.8891     0.8022 O.2     
  29 C29            1.1318    14.1885    -0.5796 C.2     
  30 O30            0.1603    14.4241     0.1073 O.2     
  31 C31            0.9794    13.9241    -2.0554 C.3     
  32 N32           -0.4442    13.6360    -2.3425 N.am    
  33 C33            1.4229    15.1567    -2.8459 C.3     
  34 C34           -0.7053    12.3712    -2.7887 C.2     
  35 O35            0.1915    11.5655    -2.9201 O.2     
  36 C36           -2.1278    11.9953    -3.1139 C.3     
  37 N37           -2.2308    10.5235    -3.1734 N.am    
  38 C38           -3.0610    12.5310    -2.0262 C.3     
  39 C39           -3.0845     9.9370    -2.2904 C.2     
  40 O40           -3.7170    10.6125    -1.5064 O.2     
  41 C41           -3.2342     8.4375    -2.2996 C.3     
  42 C42            1.3863    14.8478    -4.3205 C.2     
  43 C43            0.2201    14.9426    -5.2019 C.ar    
  44 C44            0.6661    14.5582    -6.4794 C.ar    
  45 N45            2.0046    14.2552    -6.3681 N.pl3   
  46 C46            2.4174    14.4391    -5.0766 C.2     
  47 C47           -1.1135    15.3095    -5.0107 C.ar    
  48 C48           -1.9796    15.2932    -6.0673 C.ar    
  49 C49           -1.5444    14.9142    -7.3300 C.ar    
  50 C50           -0.2330    14.5493    -7.5410 C.ar    
  51 N51           -3.8504     8.0163    -1.0205 N.am    
  52 C52           -1.8582     7.7849    -2.4463 C.3     
  53 C53           -2.0274     6.3166    -2.7406 C.ar    
  54 C54           -2.5978     5.9120    -3.9327 C.ar    
  55 C55           -2.7531     4.5650    -4.2027 C.ar    
  56 C56           -2.3374     3.6230    -3.2807 C.ar    
  57 C57           -1.7660     4.0277    -2.0886 C.ar    
  58 C58           -1.6068     5.3742    -1.8206 C.ar    
  59 C59           -2.1986     7.6163     2.9545 C.2     
  60 O60           -2.8726     8.6245     2.9601 O.2     
  61 C61           -4.5068    12.4799    -2.5242 C.3     
  62 C62           -5.4545    12.8309    -1.3755 C.3     
  63 N63           -6.8389    12.7820    -1.8522 N.pl3   
  64 C64           -7.8730    13.0628    -0.9908 C.2     
  65 N65           -9.1722    13.0169    -1.4382 N.pl3   
  66 N66           -7.6216    13.3727     0.2501 N.2     
  67 N67           -2.4593     6.6162     2.0681 N.am    
  68 C68           -3.5840     6.8356     1.1371 C.3     
  69 C69           -3.0361     7.3045    -0.1861 C.2     
  70 O70           -1.8930     7.0540    -0.5046 O.2     
  71 C71           -4.5230     7.8995     1.7091 C.3     
  72 C72           -4.8308     7.5746     3.1722 C.3     
  73 C73           -5.7556     8.6226     3.7357 C.2     
  74 O74           -6.1316     9.5391     3.0359 O.2     
  75 N75           -6.1650     8.5414     5.0172 N.am    
  76 C76           -3.0510     6.9392    -4.9381 C.3     
  77 H77            1.5123     1.4376     3.1926 H       
  78 H78            0.5393     1.0434     1.7552 H       
  79 H79            2.2793     1.3790     1.5875 H       
  80 H80            2.7983     3.7613     2.7355 H       
  81 H81            2.5010     6.0520     2.5098 H       
  82 H82            0.6989     5.0795     0.2480 H       
  83 H83            1.1661     6.7771     0.5086 H       
  84 H84            3.5562     6.1523     0.2942 H       
  85 H85            3.0889     4.4546     0.0336 H       
  86 H86            1.8138     5.1159    -1.9876 H       
  87 H87            2.2810     6.8135    -1.7270 H       
  88 H88            4.6299     5.2480    -1.8185 H       
  89 H89            1.9606     6.2996    -3.8833 H       
  90 H90            2.8390     6.2777    -5.3153 H       
  91 H91            5.0728     5.6545    -5.2599 H       
  92 H92            0.7871     7.7965     2.9395 H       
  93 H93           -1.2993     6.6598     4.6372 H       
  94 H94           -0.7549     9.5846     3.9722 H       
  95 H95           -1.6905     8.9473     5.3458 H       
  96 H96            0.1842     8.4832     6.5573 H       
  97 H97            1.0544     7.8515     5.1388 H       
  98 H98            0.7009    10.7574     5.9743 H       
  99 H99            2.2202     9.8456     5.8047 H       
 100 H100           1.5603     9.6059     3.4109 H       
 101 H101           2.2276    12.1264     4.7198 H       
 102 H102           3.2383    11.1210     3.6537 H       
 103 H103           1.4647    11.6912     1.8184 H       
 104 H104           0.9866    13.0107     2.9131 H       
 105 H105           3.5997    13.4788     2.9809 H       
 106 H106           3.5848    12.5942     1.4363 H       
 107 H107           1.4793    14.6911     1.8030 H       
 108 H108           3.1649    13.9671    -0.5613 H       
 109 H109           2.7261    16.0195     3.4988 H       
 110 H110           3.9809    17.0031     2.9690 H       
 111 H111           1.5901    13.0667    -2.3381 H       
 112 H112          -1.1424    14.2984    -2.2221 H       
 113 H113           0.7501    15.9871    -2.6318 H       
 114 H114           2.4383    15.4279    -2.5567 H       
 115 H115          -2.4063    12.4202    -4.0783 H       
 116 H116          -1.7168    10.0016    -3.8092 H       
 117 H117          -2.9636    11.9184    -1.1299 H       
 118 H118          -2.7933    13.5615    -1.7929 H       
 119 H119          -3.8741     8.1388    -3.1299 H       
 120 H120           2.5715    13.9593    -7.0975 H       
 121 H121           3.4221    14.2726    -4.7171 H       
 122 H122          -1.4593    15.6047    -4.0311 H       
 123 H123          -3.0110    15.5771    -5.9190 H       
 124 H124          -2.2409    14.9060    -8.1553 H       
 125 H125           0.0959    14.2563    -8.5271 H       
 126 H126          -4.7681     8.2313    -0.7910 H       
 127 H127          -1.3163     8.2594    -3.2645 H       
 128 H128          -1.2973     7.9075    -1.5198 H       
 129 H129          -3.1995     4.2489    -5.1339 H       
 130 H130          -2.4594     2.5708    -3.4913 H       
 131 H131          -1.4415     3.2916    -1.3680 H       
 132 H132          -1.1604     5.6904    -0.8893 H       
 133 H133          -4.6374    13.1966    -3.3349 H       
 134 H134          -4.7311    11.4766    -2.8865 H       
 135 H135          -5.3239    12.1142    -0.5647 H       
 136 H136          -5.2303    13.8342    -1.0131 H       
 137 H137          -7.0260    12.5514    -2.7757 H       
 138 H138          -9.3592    12.7864    -2.3617 H       
 139 H139          -9.9017    13.2151    -0.8304 H       
 140 H140          -8.3512    13.5708     0.8578 H       
 141 H141          -1.9333     5.8014     2.0495 H       
 142 H142          -4.1291     5.9022     0.9965 H       
 143 H143          -4.0452     8.8772     1.6468 H       
 144 H144          -5.4505     7.9112     1.1367 H       
 145 H145          -5.3086     6.5969     3.2346 H       
 146 H146          -3.9033     7.5629     3.7447 H       
 147 H147          -5.8643     7.8084     5.5769 H       
 148 H148          -6.7603     9.2159     5.3799 H       
 149 H149          -2.2310     7.1679    -5.6187 H       
 150 H150          -3.8946     6.5452    -5.5049 H       
 151 H151          -3.3553     7.8473    -4.4177 H       
@<TRIPOS>BOND
   1    1    2 1
   2    1    3 am
   3    1    4 2
   4    2   77 1
   5    2   78 1
   6    2   79 1
   7    3    5 1
   8    3   80 1
   9    5    6 1
  10    5    7 1
  11    5   81 1
  12    6    8 1
  13    6   82 1
  14    6   83 1
  15    7   14 2
  16    7   15 am
  17    8    9 1
  18    8   84 1
  19    8   85 1
  20    9   10 1
  21    9   86 1
  22    9   87 1
  23   10   11 1
  24   10   88 1
  25   11   12 1
  26   11   13 2
  27   12   89 1
  28   12   90 1
  29   13   91 1
  30   15   16 1
  31   15   92 1
  32   16   17 1
  33   16   59 1
  34   16   93 1
  35   17   18 1
  36   17   94 1
  37   17   95 1
  38   18   19 1
  39   18   96 1
  40   18   97 1
  41   19   20 1
  42   19   98 1
  43   19   99 1
  44   20   21 1
  45   20  100 1
  46   21   22 1
  47   21  101 1
  48   21  102 1
  49   22   23 1
  50   22  103 1
  51   22  104 1
  52   23   24 1
  53   23  105 1
  54   23  106 1
  55   24   25 1
  56   24   26 1
  57   24  107 1
  58   25   29 am
  59   25  108 1
  60   26   27 am
  61   26   28 2
  62   27  109 1
  63   27  110 1
  64   29   30 2
  65   29   31 1
  66   31   32 1
  67   31   33 1
  68   31  111 1
  69   32   34 am
  70   32  112 1
  71   33   42 1
  72   33  113 1
  73   33  114 1
  74   34   35 2
  75   34   36 1
  76   36   37 1
  77   36   38 1
  78   36  115 1
  79   37   39 am
  80   37  116 1
  81   38   61 1
  82   38  117 1
  83   38  118 1
  84   39   40 2
  85   39   41 1
  86   41   51 1
  87   41   52 1
  88   41  119 1
  89   42   43 1
  90   42   46 2
  91   43   44 ar
  92   43   47 ar
  93   44   45 1
  94   44   50 ar
  95   45   46 1
  96   45  120 1
  97   46  121 1
  98   47   48 ar
  99   47  122 1
 100   48   49 ar
 101   48  123 1
 102   49   50 ar
 103   49  124 1
 104   50  125 1
 105   51   69 am
 106   51  126 1
 107   52   53 1
 108   52  127 1
 109   52  128 1
 110   53   54 ar
 111   53   58 ar
 112   54   55 ar
 113   54   76 1
 114   55   56 ar
 115   55  129 1
 116   56   57 ar
 117   56  130 1
 118   57   58 ar
 119   57  131 1
 120   58  132 1
 121   59   60 2
 122   59   67 am
 123   61   62 1
 124   61  133 1
 125   61  134 1
 126   62   63 1
 127   62  135 1
 128   62  136 1
 129   63   64 1
 130   63  137 1
 131   64   65 1
 132   64   66 2
 133   65  138 1
 134   65  139 1
 135   66  140 1
 136   67   68 1
 137   67  141 1
 138   68   69 1
 139   68   71 1
 140   68  142 1
 141   69   70 2
 142   71   72 1
 143   71  143 1
 144   71  144 1
 145   72   73 1
 146   72  145 1
 147   72  146 1
 148   73   74 2
 149   73   75 am
 150   75  147 1
 151   75  148 1
 152   76  149 1
 153   76  150 1
 154   76  151 1

#	End of record

