#	Name: ASD07480011
#	Creating user name:	WinNT
#	Creation time:	15. 06. 2019 21:11

#	Modifying user name:	WinNT
#	Modification time:	15. 06. 2019 21:11

#	Program:	/corina/corina34_cracker 3.40 0067  02.08.2006

@<TRIPOS>MOLECULE
ASD07480011
  50   53    0    0    0
SMALL
NO_CHARGES


@<TRIPOS>ATOM
   1 C1            -0.0170     1.4020     0.0098 C.2     
   2 C2             0.0021    -0.0041     0.0020 C.2     
   3 N3             1.1418    -0.6570    -0.0124 N.2     
   4 N4             2.3572     0.0341    -0.0203 N.pl3   
   5 C5             2.3723     1.3982    -0.0132 C.2     
   6 C6             1.1515     2.0990     0.0023 C.2     
   7 C7             3.6688    -0.3842    -0.0351 C.2     
   8 C8             4.4481     0.7642    -0.0365 C.2     
   9 N9             3.6392     1.8103    -0.0231 N.2     
  10 N10           -1.1970    -0.7100     0.0102 N.pl3   
  11 C11           -1.3294    -2.1743     0.0036 C.3     
  12 C12           -2.5451    -0.1136     0.0332 C.3     
  13 C13           -3.4686    -1.1972    -0.5772 C.3     
  14 C14           -2.8382    -2.4979    -0.0094 C.3     
  15 C15           -0.6919    -2.7520     1.2409 C.ar    
  16 C16            0.0427    -3.9199     1.1585 C.ar    
  17 C17            0.6278    -4.4514     2.2930 C.ar    
  18 C18            0.4785    -3.8154     3.5106 C.ar    
  19 C19           -0.2569    -2.6450     3.5943 C.ar    
  20 C20           -0.8375    -2.1108     2.4567 C.ar    
  21 F21           -0.4035    -2.0224     4.7842 F       
  22 C22            4.1466    -1.7657    -0.0463 C.2     
  23 N23            3.2637    -2.7840    -0.0425 N.am    
  24 O24            5.3420    -1.9964    -0.0591 O.2     
  25 C25            3.7425    -4.1686    -0.0538 C.3     
  26 O26           -4.8137    -1.0399    -0.1212 O.3     
  27 C27            4.0420    -4.6163     1.3783 C.3     
  28 C28            2.6677    -5.0750    -0.6572 C.3     
  29 H29           -0.9597     1.9289     0.0171 H       
  30 H30            1.1424     3.1789     0.0079 H       
  31 H31            5.5275     0.7978    -0.0466 H       
  32 H32           -0.8520    -2.5856    -0.8857 H       
  33 H33           -2.8448     0.1070     1.0577 H       
  34 H34           -2.5698     0.7916    -0.5734 H       
  35 H35           -3.4225    -1.1815    -1.6662 H       
  36 H36           -3.0458    -3.3446    -0.6637 H       
  37 H37           -3.1990    -2.6921     1.0007 H       
  38 H38            0.1596    -4.4179     0.2073 H       
  39 H39            1.2013    -5.3642     2.2275 H       
  40 H40            0.9350    -4.2312     4.3967 H       
  41 H41           -1.4113    -1.1981     2.5208 H       
  42 H42            2.3114    -2.6003    -0.0324 H       
  43 H43            4.6510    -4.2340    -0.6524 H       
  44 H44           -5.2164    -0.1960    -0.3676 H       
  45 H45            3.1335    -4.5508     1.9769 H       
  46 H46            4.3982    -5.6464     1.3699 H       
  47 H47            4.8077    -3.9705     1.8082 H       
  48 H48            2.4544    -4.7560    -1.6774 H       
  49 H49            3.0240    -6.1051    -0.6656 H       
  50 H50            1.7592    -5.0095    -0.0586 H       
@<TRIPOS>BOND
   1    1    2 1
   2    1    6 2
   3    1   29 1
   4    2    3 2
   5    2   10 1
   6    3    4 1
   7    4    5 1
   8    4    7 1
   9    5    6 1
  10    5    9 2
  11    6   30 1
  12    7    8 2
  13    7   22 1
  14    8    9 1
  15    8   31 1
  16   10   11 1
  17   10   12 1
  18   11   15 1
  19   11   14 1
  20   11   32 1
  21   12   13 1
  22   12   33 1
  23   12   34 1
  24   13   14 1
  25   13   26 1
  26   13   35 1
  27   14   36 1
  28   14   37 1
  29   15   16 ar
  30   15   20 ar
  31   16   17 ar
  32   16   38 1
  33   17   18 ar
  34   17   39 1
  35   18   19 ar
  36   18   40 1
  37   19   20 ar
  38   19   21 1
  39   20   41 1
  40   22   23 am
  41   22   24 2
  42   23   25 1
  43   23   42 1
  44   25   27 1
  45   25   28 1
  46   25   43 1
  47   26   44 1
  48   27   45 1
  49   27   46 1
  50   27   47 1
  51   28   48 1
  52   28   49 1
  53   28   50 1

#	End of record

