#	Name: ASD02030674
#	Creating user name:	WinNT
#	Creation time:	15. 06. 2019 20:15

#	Modifying user name:	WinNT
#	Modification time:	15. 06. 2019 20:15

#	Program:	/corina/corina34_cracker 3.40 0067  02.08.2006

@<TRIPOS>MOLECULE
ASD02030674
  47   49    0    0    0
SMALL
NO_CHARGES


@<TRIPOS>ATOM
   1 N1            -0.0437     1.4273     0.1809 N.am    
   2 C2            -0.1954     0.0882     0.1732 C.2     
   3 C3            -1.5447    -0.5024     0.2714 C.ar    
   4 O4             0.7792    -0.6336     0.0854 O.2     
   5 C5            -1.7041    -1.8905     0.2636 C.ar    
   6 C6            -2.9647    -2.4374     0.3554 C.ar    
   7 C7            -4.0773    -1.6108     0.4552 C.ar    
   8 C8            -3.9231    -0.2297     0.4629 C.ar    
   9 C9            -2.6654     0.3252     0.3782 C.ar    
  10 O10           -5.3185    -2.1540     0.5451 O.3     
  11 C11           -5.5969    -2.8627     1.6563 C.2     
  12 N12           -6.7714    -3.5152     1.7628 N.am    
  13 O13           -4.7892    -2.9138     2.5626 O.2     
  14 C14            1.2390     1.9861     0.2104 C.ar    
  15 C15            2.2591     1.3507     0.8972 C.ar    
  16 C16            3.5336     1.8971     0.9318 C.ar    
  17 C17            3.8043     3.0723     0.2891 C.ar    
  18 C18            2.7912     3.7328    -0.4110 C.ar    
  19 C19            1.4981     3.1849    -0.4578 C.ar    
  20 C20           -7.7452    -3.4536     0.6700 C.3     
  21 C21           -7.0742    -4.2859     2.9712 C.3     
  22 C22           -7.7755    -3.3841     3.9890 C.3     
  23 C23           -7.4883    -4.6023    -0.3074 C.3     
  24 C24            2.7337     4.9730    -1.1885 C.2     
  25 C25            1.4731     5.1000    -1.6328 C.2     
  26 N26            0.7202     4.0405    -1.2070 N.pl3   
  27 H27           -0.8236     2.0039     0.1620 H       
  28 H28           -0.8400    -2.5336     0.1854 H       
  29 H29           -3.0888    -3.5103     0.3494 H       
  30 H30           -4.7904     0.4093     0.5399 H       
  31 H31           -2.5464     1.3986     0.3842 H       
  32 H32            2.0609     0.4215     1.4108 H       
  33 H33            4.3190     1.3894     1.4720 H       
  34 H34            4.7985     3.4925     0.3262 H       
  35 H35           -8.7530    -3.5406     1.0761 H       
  36 H36           -7.6451    -2.5024     0.1472 H       
  37 H37           -7.7263    -5.1211     2.7156 H       
  38 H38           -6.1477    -4.6668     3.4010 H       
  39 H39           -8.0008    -3.9576     4.8881 H       
  40 H40           -7.1234    -2.5490     4.2446 H       
  41 H41           -8.7020    -3.0033     3.5592 H       
  42 H42           -6.4806    -4.5153    -0.7135 H       
  43 H43           -7.5885    -5.5535     0.2154 H       
  44 H44           -8.2129    -4.5565    -1.1204 H       
  45 H45            3.5505     5.6560    -1.3697 H       
  46 H46            1.1085     5.9159    -2.2393 H       
  47 H47           -0.2211     3.9113    -1.4023 H       
@<TRIPOS>BOND
   1    1    2 am
   2    1   14 1
   3    1   27 1
   4    2    3 1
   5    2    4 2
   6    3    5 ar
   7    3    9 ar
   8    5    6 ar
   9    5   28 1
  10    6    7 ar
  11    6   29 1
  12    7    8 ar
  13    7   10 1
  14    8    9 ar
  15    8   30 1
  16    9   31 1
  17   10   11 1
  18   11   12 am
  19   11   13 2
  20   12   20 1
  21   12   21 1
  22   14   15 ar
  23   14   19 ar
  24   15   16 ar
  25   15   32 1
  26   16   17 ar
  27   16   33 1
  28   17   18 ar
  29   17   34 1
  30   18   19 ar
  31   18   24 1
  32   19   26 1
  33   20   23 1
  34   20   35 1
  35   20   36 1
  36   21   22 1
  37   21   37 1
  38   21   38 1
  39   22   39 1
  40   22   40 1
  41   22   41 1
  42   23   42 1
  43   23   43 1
  44   23   44 1
  45   24   25 2
  46   24   45 1
  47   25   26 1
  48   25   46 1
  49   26   47 1

#	End of record

