#	Name: ASD01328033
#	Creating user name:	WinNT
#	Creation time:	15. 06. 2019 19:16

#	Modifying user name:	WinNT
#	Modification time:	15. 06. 2019 19:16

#	Program:	/corina/corina34_cracker 3.40 0067  02.08.2006

@<TRIPOS>MOLECULE
ASD01328033
  39   41    0    0    0
SMALL
NO_CHARGES


@<TRIPOS>ATOM
   1 C1            -0.0164     1.3562     0.0095 C.2     
   2 N2             0.0021    -0.0041     0.0020 N.pl3   
   3 C3             1.3256    -0.3967    -0.0127 C.ar    
   4 C4             2.0815     0.7880    -0.0136 C.ar    
   5 N5             1.1992     1.8201     0.0004 N.2     
   6 C6             3.4765     0.7132    -0.0269 C.ar    
   7 C7             4.0928    -0.5063    -0.0389 C.ar    
   8 C8             3.3470    -1.6761    -0.0381 C.ar    
   9 C9             1.9690    -1.6264    -0.0251 C.ar    
  10 C10            5.5978    -0.5813    -0.0538 C.3     
  11 C11           -1.2632     2.2025     0.0202 C.3     
  12 C12           -1.2149     3.1678     1.2075 C.3     
  13 O13           -1.1934     2.4237     2.4273 O.3     
  14 C14           -2.4561     4.0649     1.1770 C.3     
  15 O15           -2.3832     5.0180     2.2393 O.3     
  16 C16           -2.5094     4.7984    -0.1667 C.3     
  17 O17           -3.7017     5.5832    -0.2353 O.3     
  18 C18           -2.5078     3.7702    -1.3009 C.3     
  19 O19           -1.3431     2.9489    -1.1958 O.3     
  20 C20           -2.5004     4.4961    -2.6477 C.3     
  21 O21           -2.6162     3.5410    -3.7043 O.3     
  22 H22           -0.7713    -0.5896     0.0067 H       
  23 H23            4.0668     1.6176    -0.0280 H       
  24 H24            3.8491    -2.6323    -0.0477 H       
  25 H25            1.3931    -2.5401    -0.0242 H       
  26 H26            5.9706    -0.6045     0.9702 H       
  27 H27            5.9114    -1.4856    -0.5752 H       
  28 H28            6.0001     0.2921    -0.5671 H       
  29 H29           -2.1386     1.5593     0.1101 H       
  30 H30           -0.3177     3.7831     1.1404 H       
  31 H31           -1.1626     2.9729     3.2226 H       
  32 H32           -3.3507     3.4538     1.2961 H       
  33 H33           -2.3397     4.6222     3.1205 H       
  34 H34           -1.6396     5.4483    -0.2617 H       
  35 H35           -3.7718     6.2535     0.4581 H       
  36 H36           -3.3994     3.1475    -1.2283 H       
  37 H37           -3.3401     5.1898    -2.6912 H       
  38 H38           -1.5670     5.0482    -2.7577 H       
  39 H39           -2.6182     3.9315    -4.5889 H       
@<TRIPOS>BOND
   1    1    2 1
   2    1    5 2
   3    1   11 1
   4    2    3 1
   5    2   22 1
   6    3    4 ar
   7    3    9 ar
   8    4    5 1
   9    4    6 ar
  10    6    7 ar
  11    6   23 1
  12    7    8 ar
  13    7   10 1
  14    8    9 ar
  15    8   24 1
  16    9   25 1
  17   10   26 1
  18   10   27 1
  19   10   28 1
  20   11   12 1
  21   11   19 1
  22   11   29 1
  23   12   13 1
  24   12   14 1
  25   12   30 1
  26   13   31 1
  27   14   15 1
  28   14   16 1
  29   14   32 1
  30   15   33 1
  31   16   17 1
  32   16   18 1
  33   16   34 1
  34   17   35 1
  35   18   19 1
  36   18   20 1
  37   18   36 1
  38   20   21 1
  39   20   37 1
  40   20   38 1
  41   21   39 1

#	End of record

