#	Name: ASD00310011
#	Creating user name:	WinNT
#	Creation time:	15. 06. 2019 18:33

#	Modifying user name:	WinNT
#	Modification time:	15. 06. 2019 18:33

#	Program:	/corina/corina34_cracker 3.40 0067  02.08.2006

@<TRIPOS>MOLECULE
ASD00310011
  23   24    0    0    0
SMALL
NO_CHARGES


@<TRIPOS>ATOM
   1 O1            -0.0173     1.4282     0.0099 O.3     
   2 C2             0.0021    -0.0041     0.0020 C.3     
   3 C3             1.4796    -0.4507     0.0295 C.3     
   4 C4             2.1925     0.8037     0.6040 C.3     
   5 C5             1.3259     1.9371    -0.0002 C.3     
   6 C6             1.6644    -1.6370     0.9403 C.ar    
   7 C7             2.1840    -2.8169     0.4415 C.ar    
   8 C8             2.3541    -3.9050     1.2766 C.ar    
   9 C9             2.0044    -3.8132     2.6118 C.ar    
  10 C10            1.4846    -2.6324     3.1105 C.ar    
  11 C11            1.3197    -1.5431     2.2758 C.ar    
  12 Br12           2.2364    -5.3017     3.7548 Br      
  13 H13           -0.5160    -0.3857     0.8818 H       
  14 H14           -0.4798    -0.3754    -0.9024 H       
  15 H15            1.8364    -0.6732    -0.9762 H       
  16 H16            2.1505     0.8151     1.6932 H       
  17 H17            3.2222     0.8662     0.2518 H       
  18 H18            1.6416     2.1514    -1.0212 H       
  19 H19            1.3950     2.8347     0.6143 H       
  20 H20            2.4567    -2.8886    -0.6011 H       
  21 H21            2.7597    -4.8269     0.8867 H       
  22 H22            1.2110    -2.5603     4.1528 H       
  23 H23            0.9177    -0.6198     2.6660 H       
@<TRIPOS>BOND
   1    1    2 1
   2    1    5 1
   3    2    3 1
   4    2   13 1
   5    2   14 1
   6    3    4 1
   7    3    6 1
   8    3   15 1
   9    4    5 1
  10    4   16 1
  11    4   17 1
  12    5   18 1
  13    5   19 1
  14    6    7 ar
  15    6   11 ar
  16    7    8 ar
  17    7   20 1
  18    8    9 ar
  19    8   21 1
  20    9   10 ar
  21    9   12 1
  22   10   11 ar
  23   10   22 1
  24   11   23 1

#	End of record

