#	Name: ASD02198504
#	Creating user name:	WinNT
#	Creation time:	15. 06. 2019 20:19

#	Modifying user name:	WinNT
#	Modification time:	15. 06. 2019 20:19

#	Program:	/corina/corina34_cracker 3.40 0067  02.08.2006

@<TRIPOS>MOLECULE
ASD02198504
  43   46    0    0    0
SMALL
NO_CHARGES


@<TRIPOS>ATOM
   1 C1             0.0103     1.3525    -0.2602 C.2     
   2 C2             0.0275    -0.0036    -0.2549 C.2     
   3 N3             1.1729    -0.6817    -0.0128 N.pl3   
   4 N4             2.2946    -0.1076     0.2227 N.2     
   5 C5             2.4180     1.2020     0.2471 C.2     
   6 C6             1.2274     2.0302    -0.0046 C.2     
   7 C7             1.1310    -2.0798    -0.0194 C.ar    
   8 C8             0.0942    -4.1302     0.6677 C.ar    
   9 C9             1.0480    -4.8456    -0.0326 C.ar    
  10 C10            2.0468    -4.1819    -0.7219 C.ar    
  11 C11            2.0912    -2.8019    -0.7174 C.ar    
  12 C12            3.7263     1.8294     0.5224 C.2     
  13 N13            4.9075     1.1785     0.7725 N.pl3   
  14 C14            5.8350     2.1579     0.9670 C.2     
  15 N15            5.2252     3.3060     0.8369 N.2     
  16 N16            3.9821     3.1190     0.5689 N.2     
  17 C17            5.1171    -0.2067     0.8185 C.ar    
  18 C18            4.5007    -0.9712     1.7998 C.ar    
  19 O19            1.2867     3.2504     0.0059 O.2     
  20 C20            5.9370    -0.8176    -0.1207 C.ar    
  21 C21            6.1413    -2.1828    -0.0731 C.ar    
  22 C22            5.5298    -2.9410     0.9084 C.ar    
  23 C23            4.7088    -2.3360     1.8422 C.ar    
  24 C24            0.1327    -2.7496     0.6764 C.ar    
  25 C25           -0.9924    -4.8576     1.4168 C.3     
  26 F26           -0.8268    -6.2373     1.2555 F       
  27 F27           -0.9182    -4.5347     2.7761 F       
  28 F28           -2.2411    -4.4758     0.9144 F       
  29 C29            7.2959     1.9540     1.2760 C.3     
  30 H30           -0.9008     1.8979    -0.4572 H       
  31 H31           -0.8847    -0.5491    -0.4460 H       
  32 H32            1.0132    -5.9250    -0.0412 H       
  33 H33            2.7902    -4.7437    -1.2679 H       
  34 H34            2.8711    -2.2843    -1.2561 H       
  35 H35            3.8594    -0.4993     2.5294 H       
  36 H36            6.4143    -0.2261    -0.8879 H       
  37 H37            6.7790    -2.6586    -0.8034 H       
  38 H38            5.6907    -4.0084     0.9433 H       
  39 H39            4.2328    -2.9307     2.6078 H       
  40 H40           -0.6123    -2.1914     1.2239 H       
  41 H41            7.8605     1.9033     0.3450 H       
  42 H42            7.6599     2.7874     1.8768 H       
  43 H43            7.4238     1.0238     1.8296 H       
@<TRIPOS>BOND
   1    1    2 2
   2    1    6 1
   3    1   30 1
   4    2    3 1
   5    2   31 1
   6    3    4 1
   7    3    7 1
   8    4    5 2
   9    5    6 1
  10    5   12 1
  11    6   19 2
  12    7   24 ar
  13    7   11 ar
  14    8    9 ar
  15    8   25 1
  16    8   24 ar
  17    9   10 ar
  18    9   32 1
  19   10   11 ar
  20   10   33 1
  21   11   34 1
  22   12   13 1
  23   12   16 2
  24   13   14 1
  25   13   17 1
  26   14   15 2
  27   14   29 1
  28   15   16 1
  29   17   20 ar
  30   17   18 ar
  31   18   23 ar
  32   18   35 1
  33   20   21 ar
  34   20   36 1
  35   21   22 ar
  36   21   37 1
  37   22   23 ar
  38   22   38 1
  39   23   39 1
  40   24   40 1
  41   25   26 1
  42   25   27 1
  43   25   28 1
  44   29   41 1
  45   29   42 1
  46   29   43 1

#	End of record

