#	Name: ASD01810939
#	Creating user name:	WinNT
#	Creation time:	15. 06. 2019 19:25

#	Modifying user name:	WinNT
#	Modification time:	15. 06. 2019 19:25

#	Program:	/corina/corina34_cracker 3.40 0067  02.08.2006

@<TRIPOS>MOLECULE
ASD01810939
  58   62    0    0    0
SMALL
NO_CHARGES


@<TRIPOS>ATOM
   1 C1             0.0478     1.1453    -0.5216 C.ar    
   2 C2            -0.0094    -0.1564    -0.0182 C.ar    
   3 C3            -1.2905    -0.8947    -0.0167 C.2     
   4 N4            -2.4278    -0.2700     0.3475 N.am    
   5 O5            -1.3179    -2.0650    -0.3439 O.2     
   6 C6            -2.3956     1.1093     0.8527 C.3     
   7 C7             1.1436    -0.7576     0.4820 C.ar    
   8 C8             2.3465    -0.0552     0.4765 C.ar    
   9 C9             2.3897     1.2452    -0.0296 C.ar    
  10 C10            1.2433     1.8356    -0.5241 C.ar    
  11 C11            3.5755    -0.6857     1.0061 C.2     
  12 C12           -3.1124     1.1557     2.2058 C.3     
  13 C13           -4.5201     0.5750     2.0530 C.3     
  14 C14           -4.4255    -0.8857     1.6063 C.3     
  15 C15           -3.7242    -0.9533     0.2412 C.3     
  16 C16           -5.2404     0.6503     3.3745 C.ar    
  17 C17           -6.4149     1.3744     3.4784 C.ar    
  18 C18           -7.0796     1.4472     4.6850 C.ar    
  19 C19           -6.5646     0.7879     5.8029 C.ar    
  20 C20           -5.3789     0.0589     5.6910 C.ar    
  21 C21           -4.7273    -0.0097     4.4770 C.ar    
  22 C22            3.6903     2.0065    -0.0363 C.3     
  23 N23            4.7893    -0.1757     0.9493 N.2     
  24 C24           -7.2491     0.8594     7.0587 C.1     
  25 N25           -7.7921     0.9162     8.0549 N.1     
  26 C26            5.6424    -1.0169     1.5250 C.2     
  27 C27            4.9488    -2.0974     1.9605 C.2     
  28 N28            3.6438    -1.8940     1.6431 N.pl3   
  29 C29            7.1347    -0.8784     1.7099 C.3     
  30 C30            7.5724    -1.9046     2.7651 C.3     
  31 O31            7.0076    -3.1820     2.4579 O.3     
  32 C32            5.5904    -3.2657     2.6633 C.3     
  33 H33           -0.8442     1.6111    -0.9138 H       
  34 H34           -1.3609     1.4291     0.9762 H       
  35 H35           -2.9023     1.7685     0.1479 H       
  36 H36            1.1048    -1.7637     0.8727 H       
  37 H37            1.2823     2.8417    -0.9147 H       
  38 H38           -2.5535     0.5679     2.9339 H       
  39 H39           -3.1800     2.1889     2.5464 H       
  40 H40           -5.0702     1.1481     1.3066 H       
  41 H41           -3.8542    -1.4542     2.3401 H       
  42 H42           -5.4278    -1.3054     1.5203 H       
  43 H43           -4.3413    -0.4624    -0.5114 H       
  44 H44           -3.5651    -1.9952    -0.0367 H       
  45 H45           -6.8119     1.8841     2.6130 H       
  46 H46           -7.9960     2.0130     4.7648 H       
  47 H47           -4.9750    -0.4530     6.5518 H       
  48 H48           -3.8101    -0.5732     4.3890 H       
  49 H49            4.2693     1.7288    -0.9171 H       
  50 H50            3.4848     3.0767    -0.0592 H       
  51 H51            4.2576     1.7646     0.8625 H       
  52 H52            2.9035    -2.4930     1.8278 H       
  53 H53            7.6438    -1.0780     0.7670 H       
  54 H54            7.3724     0.1285     2.0530 H       
  55 H55            8.6598    -1.9801     2.7683 H       
  56 H56            7.2288    -1.5830     3.7482 H       
  57 H57            5.3693    -3.2211     3.7297 H       
  58 H58            5.2122    -4.1992     2.2466 H       
@<TRIPOS>BOND
   1    1    2 ar
   2    1   10 ar
   3    1   33 1
   4    2    3 1
   5    2    7 ar
   6    3    4 am
   7    3    5 2
   8    4    6 1
   9    4   15 1
  10    6   12 1
  11    6   34 1
  12    6   35 1
  13    7    8 ar
  14    7   36 1
  15    8    9 ar
  16    8   11 1
  17    9   10 ar
  18    9   22 1
  19   10   37 1
  20   11   23 2
  21   11   28 1
  22   12   13 1
  23   12   38 1
  24   12   39 1
  25   13   14 1
  26   13   16 1
  27   13   40 1
  28   14   15 1
  29   14   41 1
  30   14   42 1
  31   15   43 1
  32   15   44 1
  33   16   17 ar
  34   16   21 ar
  35   17   18 ar
  36   17   45 1
  37   18   19 ar
  38   18   46 1
  39   19   20 ar
  40   19   24 1
  41   20   21 ar
  42   20   47 1
  43   21   48 1
  44   22   49 1
  45   22   50 1
  46   22   51 1
  47   23   26 1
  48   24   25 3
  49   26   27 2
  50   26   29 1
  51   27   28 1
  52   27   32 1
  53   28   52 1
  54   29   30 1
  55   29   53 1
  56   29   54 1
  57   30   31 1
  58   30   55 1
  59   30   56 1
  60   31   32 1
  61   32   57 1
  62   32   58 1

#	End of record

