#	Name: ASD07931413
#	Creating user name:	WinNT
#	Creation time:	15. 06. 2019 21:13

#	Modifying user name:	WinNT
#	Modification time:	15. 06. 2019 21:13

#	Program:	/corina/corina34_cracker 3.40 0067  02.08.2006

@<TRIPOS>MOLECULE
ASD07931413
  53   57    0    0    0
SMALL
NO_CHARGES


@<TRIPOS>ATOM
   1 C1            -0.0178     1.4608     0.0101 C.3     
   2 N2             0.0021    -0.0041     0.0020 N.am    
   3 N3             0.0024    -0.7961    -1.1490 N.2     
   4 C4             0.0224    -2.0616    -0.8462 C.2     
   5 C5             0.0371    -2.1616     0.6310 C.2     
   6 C6             0.0285    -0.7815     1.1060 C.2     
   7 O7             0.0363    -0.4058     2.2671 O.2     
   8 C8             0.0323    -3.3257    -1.6076 C.ar    
   9 C9             0.0549    -4.5338    -0.8911 C.ar    
  10 N10            0.0670    -4.5293     0.4932 N.pl3   
  11 C11            0.0597    -3.4010     1.2209 C.2     
  12 C12            0.0193    -3.3365    -2.9982 C.ar    
  13 C13            0.0287    -4.5403    -3.6729 C.ar    
  14 C14            0.0506    -5.7335    -2.9691 C.ar    
  15 C15            0.0645    -5.7358    -1.5897 C.ar    
  16 C16            0.0896    -5.8144     1.1962 C.3     
  17 C17            1.5180    -6.2369     1.4248 C.ar    
  18 C18            2.1739    -5.8552     2.5808 C.ar    
  19 C19            3.4832    -6.2405     2.7929 C.ar    
  20 C20            4.1406    -7.0122     1.8443 C.ar    
  21 C21            3.4792    -7.3943     0.6848 C.ar    
  22 C22            2.1683    -7.0103     0.4808 C.ar    
  23 N23            5.4696    -7.4045     2.0565 N.pl3   
  24 C24            6.2222    -8.1522     1.2180 C.2     
  25 C25            7.4407    -8.3071     1.7859 C.2     
  26 C26            7.4336    -7.6323     3.0117 C.2     
  27 N27            6.2551    -7.0861     3.1719 N.2     
  28 C28            1.3960     1.9824    -0.0006 C.2     
  29 O29            2.3249     1.2098    -0.0136 O.2     
  30 O30            1.6234     3.3053     0.0043 O.3     
  31 C31            3.0693     5.2647     0.0010 C.3     
  32 C32            3.0100     3.7359    -0.0066 C.3     
  33 H33           -0.5450     1.8219    -0.8730 H       
  34 H34           -0.5280     1.8123     0.9069 H       
  35 H35            0.0700    -3.4703     2.2986 H       
  36 H36            0.0015    -2.4069    -3.5477 H       
  37 H37            0.0187    -4.5523    -4.7528 H       
  38 H38            0.0571    -6.6708    -3.5056 H       
  39 H39            0.0812    -6.6723    -1.0519 H       
  40 H40           -0.4172    -5.7126     2.1559 H       
  41 H41           -0.4200    -6.5669     0.5943 H       
  42 H42            1.6620    -5.2549     3.3183 H       
  43 H43            3.9952    -5.9415     3.6956 H       
  44 H44            3.9882    -7.9943    -0.0550 H       
  45 H45            1.6533    -7.3072    -0.4209 H       
  46 H46            5.9073    -8.5541     0.2663 H       
  47 H47            8.2719    -8.8549     1.3670 H       
  48 H48            8.2599    -7.5692     3.7042 H       
  49 H49            4.1103     5.5880    -0.0072 H       
  50 H50            2.5615     5.6525    -0.8821 H       
  51 H51            2.5785     5.6429     0.8978 H       
  52 H52            3.5178     3.3481     0.8765 H       
  53 H53            3.5008     3.3577    -0.9034 H       
@<TRIPOS>BOND
   1    1    2 1
   2    1   28 1
   3    1   33 1
   4    1   34 1
   5    2    3 1
   6    2    6 am
   7    3    4 2
   8    4    5 1
   9    4    8 1
  10    5    6 1
  11    5   11 2
  12    6    7 2
  13    8    9 ar
  14    8   12 ar
  15    9   10 1
  16    9   15 ar
  17   10   11 1
  18   10   16 1
  19   11   35 1
  20   12   13 ar
  21   12   36 1
  22   13   14 ar
  23   13   37 1
  24   14   15 ar
  25   14   38 1
  26   15   39 1
  27   16   17 1
  28   16   40 1
  29   16   41 1
  30   17   18 ar
  31   17   22 ar
  32   18   19 ar
  33   18   42 1
  34   19   20 ar
  35   19   43 1
  36   20   21 ar
  37   20   23 1
  38   21   22 ar
  39   21   44 1
  40   22   45 1
  41   23   24 1
  42   23   27 1
  43   24   25 2
  44   24   46 1
  45   25   26 1
  46   25   47 1
  47   26   27 2
  48   26   48 1
  49   28   29 2
  50   28   30 1
  51   30   32 1
  52   31   32 1
  53   31   49 1
  54   31   50 1
  55   31   51 1
  56   32   52 1
  57   32   53 1

#	End of record

