#	Name: ASD09116109
#	Creating user name:	WinNT
#	Creation time:	15. 06. 2019 21:20

#	Modifying user name:	WinNT
#	Modification time:	15. 06. 2019 21:20

#	Program:	/corina/corina34_cracker 3.40 0067  02.08.2006

@<TRIPOS>MOLECULE
ASD09116109
  24   25    0    0    0
SMALL
NO_CHARGES


@<TRIPOS>ATOM
   1 C1            -0.0165     1.3676     0.0096 C.ar    
   2 C2             0.0021    -0.0041     0.0020 C.ar    
   3 C3             1.3142    -0.7547    -0.0140 C.3     
   4 C4             1.9810    -0.6153     1.3584 C.3     
   5 C5             2.6843     0.7109     1.4451 C.2     
   6 C6             1.9451     2.0183     1.3726 C.3     
   7 C7             1.2745     2.1539     0.0015 C.3     
   8 C8            -1.1849    -0.7169     0.0080 C.ar    
   9 C9            -2.3915    -0.0419     0.0216 C.ar    
  10 C10           -2.4103     1.3401     0.0297 C.ar    
  11 C11           -1.2225     2.0478     0.0189 C.ar    
  12 O12            3.8845     0.7265     1.5780 O.2     
  13 H13            1.1298    -1.8080    -0.2251 H       
  14 H14            1.9655    -0.3353    -0.7807 H       
  15 H15            1.2220    -0.6753     2.1384 H       
  16 H16            2.7044    -1.4194     1.4938 H       
  17 H17            1.1849     2.0493     2.1532 H       
  18 H18            2.6464     2.8402     1.5166 H       
  19 H19            1.9369     1.7605    -0.7696 H       
  20 H20            1.0613     3.2040    -0.1986 H       
  21 H21           -1.1683    -1.7967     0.0017 H       
  22 H22           -3.3194    -0.5946     0.0256 H       
  23 H23           -3.3529     1.8673     0.0402 H       
  24 H24           -1.2353     3.1277     0.0257 H       
@<TRIPOS>BOND
   1    1    2 ar
   2    1    7 1
   3    1   11 ar
   4    2    3 1
   5    2    8 ar
   6    3    4 1
   7    3   13 1
   8    3   14 1
   9    4    5 1
  10    4   15 1
  11    4   16 1
  12    5    6 1
  13    5   12 2
  14    6    7 1
  15    6   17 1
  16    6   18 1
  17    7   19 1
  18    7   20 1
  19    8    9 ar
  20    8   21 1
  21    9   10 ar
  22    9   22 1
  23   10   11 ar
  24   10   23 1
  25   11   24 1

#	End of record

