#	Name: ASD08170086
#	Creating user name:	WinNT
#	Creation time:	15. 06. 2019 21:17

#	Modifying user name:	WinNT
#	Modification time:	15. 06. 2019 21:17

#	Program:	/corina/corina34_cracker 3.40 0067  02.08.2006

@<TRIPOS>MOLECULE
ASD08170086
  65   70    0    0    0
SMALL
NO_CHARGES


@<TRIPOS>ATOM
   1 N1            -0.0150     1.2583     0.0090 N.2     
   2 N2             0.0021    -0.0041     0.0020 N.2     
   3 C3             1.1271     1.8769     0.0014 C.2     
   4 S4             2.3826     0.7116    -0.0169 S.3     
   5 C5             1.1681    -0.5677    -0.0121 C.2     
   6 C6             1.4387    -2.0502    -0.0227 C.3     
   7 C7             1.5165    -2.5442    -1.4687 C.3     
   8 C8             2.1699    -6.2152    -3.4347 C.3     
   9 C9             2.2167    -6.5408    -4.9053 C.2     
  10 N10            3.2694    -6.5184    -5.6596 N.2     
  11 S11            0.8491    -7.0282    -5.9071 S.3     
  12 C12            1.9000    -7.1354    -7.2557 C.2     
  13 N13            3.1017    -6.8250    -6.8728 N.2     
  14 N14            1.5289    -7.4992    -8.5457 N.am    
  15 C15            2.4537    -7.5464    -9.5250 C.2     
  16 O16            3.6096    -7.2716    -9.2812 O.2     
  17 C17            2.0516    -7.9407   -10.9228 C.3     
  18 N18            1.3017     3.2566     0.0067 N.am    
  19 C19            0.2284     4.0717     0.0214 C.2     
  20 C20            0.4176     5.5667     0.0272 C.3     
  21 O21           -0.8897     3.6019     0.0299 O.2     
  22 C22            1.8986    -4.7206    -3.2516 C.3     
  23 C23            3.2807    -7.9145   -11.8336 C.3     
  24 C24           -0.9494     6.2538     0.0441 C.3     
  25 O25           -0.7972     7.6803     0.1673 O.3     
  26 O26            4.1715    -8.9993   -11.5125 O.3     
  27 S27            1.8422    -4.3286    -1.4814 S.3     
  28 C28           -1.8168     8.2199    -0.5623 C.ar    
  29 C29           -2.3191     7.2416    -1.4168 C.ar    
  30 O30           -1.6141     6.0890    -1.2225 O.3     
  31 O31            2.9043    -8.1740   -13.1990 O.3     
  32 C32            3.9456    -8.8730   -13.7376 C.ar    
  33 C33            4.7248    -9.3804   -12.7007 C.ar    
  34 C34           -2.3696     9.4903    -0.5687 C.ar    
  35 C35           -3.4172     9.7846    -1.4213 C.ar    
  36 C36           -3.9158     8.8134    -2.2696 C.ar    
  37 C37           -3.3691     7.5437    -2.2686 C.ar    
  38 C38            4.3016    -9.1232   -15.0530 C.ar    
  39 C39            5.4273    -9.8745   -15.3341 C.ar    
  40 C40            6.2008   -10.3782   -14.3048 C.ar    
  41 C41            5.8512   -10.1333   -12.9900 C.ar    
  42 H42            2.3843    -2.2506     0.4811 H       
  43 H43            0.6334    -2.5702     0.4961 H       
  44 H44            0.5709    -2.3438    -1.9724 H       
  45 H45            2.3218    -2.0242    -1.9874 H       
  46 H46            1.3741    -6.7896    -2.9605 H       
  47 H47            3.1250    -6.4700    -2.9755 H       
  48 H48            0.6045    -7.7190    -8.7407 H       
  49 H49            1.6303    -8.9459   -10.9098 H       
  50 H50            1.3064    -7.2392   -11.2980 H       
  51 H51            2.1959     3.6323    -0.0001 H       
  52 H52            0.9817     5.8582     0.9132 H       
  53 H53            0.9643     5.8672    -0.8667 H       
  54 H54            2.6943    -4.1461    -3.7258 H       
  55 H55            0.9434    -4.4658    -3.7108 H       
  56 H56            3.7951    -6.9569   -11.7535 H       
  57 H57           -1.5634     5.8626     0.8552 H       
  58 H58           -1.9822    10.2509     0.0929 H       
  59 H59           -3.8474    10.7752    -1.4245 H       
  60 H60           -4.7343     9.0471    -2.9343 H       
  61 H61           -3.7606     6.7870    -2.9323 H       
  62 H62            3.6990    -8.7313   -15.8590 H       
  63 H63            5.7031   -10.0688   -16.3601 H       
  64 H64            7.0794   -10.9650   -14.5285 H       
  65 H65            6.4575   -10.5276   -12.1879 H       
@<TRIPOS>BOND
   1    1    2 1
   2    1    3 2
   3    2    5 2
   4    3    4 1
   5    3   18 1
   6    4    5 1
   7    5    6 1
   8    6    7 1
   9    6   42 1
  10    6   43 1
  11    7   27 1
  12    7   44 1
  13    7   45 1
  14    8    9 1
  15    8   22 1
  16    8   46 1
  17    8   47 1
  18    9   10 2
  19    9   11 1
  20   10   13 1
  21   11   12 1
  22   12   13 2
  23   12   14 1
  24   14   15 am
  25   14   48 1
  26   15   16 2
  27   15   17 1
  28   17   23 1
  29   17   49 1
  30   17   50 1
  31   18   19 am
  32   18   51 1
  33   19   20 1
  34   19   21 2
  35   20   24 1
  36   20   52 1
  37   20   53 1
  38   22   27 1
  39   22   54 1
  40   22   55 1
  41   23   31 1
  42   23   26 1
  43   23   56 1
  44   24   25 1
  45   24   30 1
  46   24   57 1
  47   25   28 1
  48   26   33 1
  49   28   29 ar
  50   28   34 ar
  51   29   30 1
  52   29   37 ar
  53   31   32 1
  54   32   33 ar
  55   32   38 ar
  56   33   41 ar
  57   34   35 ar
  58   34   58 1
  59   35   36 ar
  60   35   59 1
  61   36   37 ar
  62   36   60 1
  63   37   61 1
  64   38   39 ar
  65   38   62 1
  66   39   40 ar
  67   39   63 1
  68   40   41 ar
  69   40   64 1
  70   41   65 1

#	End of record

