#	Name: ASD01410988
#	Creating user name:	WinNT
#	Creation time:	15. 06. 2019 19:19

#	Modifying user name:	WinNT
#	Modification time:	15. 06. 2019 19:19

#	Program:	/corina/corina34_cracker 3.40 0067  02.08.2006

@<TRIPOS>MOLECULE
ASD01410988
  86   90    0    0    0
SMALL
NO_CHARGES


@<TRIPOS>ATOM
   1 C1             0.1305     1.3414    -0.4465 C.ar    
   2 C2            -1.0953     1.9681    -0.6364 C.ar    
   3 C3            -2.2711     1.2618    -0.4826 C.ar    
   4 C4            -2.2368    -0.0819    -0.1371 C.ar    
   5 C5            -1.0023    -0.7207     0.0556 C.ar    
   6 C6             0.1823     0.0017    -0.1071 C.ar    
   7 O7             1.2830     2.0464    -0.6005 O.3     
   8 C8             1.5549     3.0263     0.2974 C.ar    
   9 N9            -3.4248    -0.7946     0.0185 N.am    
  10 C10           -3.9449    -0.9773     1.2484 C.2     
  11 C11           -5.1686    -1.8382     1.4288 C.3     
  12 O12           -3.4281    -0.4489     2.2100 O.2     
  13 C13           -5.4294    -2.0474     2.9218 C.3     
  14 C14           -7.6187    -2.0216     0.9750 C.3     
  15 C15           -7.8795    -2.2309     2.4681 C.3     
  16 C16           -6.6718    -2.9214     3.1049 C.3     
  17 C17           -9.1219    -3.1049     2.6512 C.3     
  18 N18            0.7646     3.1926     1.3453 N.ar    
  19 C19           -4.1079    -1.3449    -1.1548 C.3     
  20 C20           -3.1584    -2.2807    -1.9055 C.3     
  21 C21            2.6637     3.8418     0.1109 C.ar    
  22 C22            2.9303     4.8376     1.0346 C.ar    
  23 C23            2.0740     4.9828     2.1171 C.ar    
  24 C24            0.9930     4.1326     2.2423 C.ar    
  25 C25           -6.3763    -1.1477     0.7919 C.3     
  26 C26            2.3248     6.0528     3.1483 C.3     
  27 C27            1.6144     7.3183     2.7421 C.ar    
  28 C28            0.7294     7.9162     3.6189 C.ar    
  29 C29            0.0809     9.0804     3.2354 C.ar    
  30 C30            0.3483     9.6013     1.9788 C.ar    
  31 C31            1.2460     8.9476     1.1558 C.ar    
  32 N32            1.8485     7.8451     1.5559 N.ar    
  33 C33            1.5440     9.5046    -0.2124 C.3     
  34 C34           -3.8718    -2.8555    -3.1309 C.3     
  35 C35           -4.2984    -1.7132    -4.0551 C.3     
  36 C36           -5.2479    -0.7773    -3.3044 C.3     
  37 C37           -4.5345    -0.2026    -2.0790 C.3     
  38 O38           -4.9647    -2.2500    -5.1996 O.3     
  39 C39           -4.8126    -1.4633    -6.3828 C.3     
  40 C40            3.5648     3.6447    -1.0809 C.3     
  41 F41            4.6014     4.5833    -1.0421 F       
  42 F42            4.1031     2.3538    -1.0501 F       
  43 F43            2.8262     3.8140    -2.2569 F       
  44 C44           -0.9556    -2.1473     0.4232 C.2     
  45 O45           -1.9853    -2.7481     0.6584 O.2     
  46 O46            0.2290    -2.7853     0.4983 O.3     
  47 H47           -1.1280     3.0135    -0.9054 H       
  48 H48           -3.2199     1.7560    -0.6312 H       
  49 H49            1.1362    -0.4831     0.0391 H       
  50 H50           -5.0075    -2.8037     0.9492 H       
  51 H51           -4.5690    -2.5394     3.3755 H       
  52 H52           -5.5905    -1.0819     3.4013 H       
  53 H53           -7.4576    -2.9872     0.4955 H       
  54 H54           -8.4790    -1.5297     0.5214 H       
  55 H55           -8.0406    -1.2654     2.9476 H       
  56 H56           -6.5107    -3.8869     2.6254 H       
  57 H57           -6.8576    -3.0705     4.1685 H       
  58 H58           -8.9608    -4.0704     2.1716 H       
  59 H59           -9.3077    -3.2540     3.7148 H       
  60 H60           -9.9822    -2.6129     2.1975 H       
  61 H61           -4.9887    -1.9015    -0.8346 H       
  62 H62           -2.2775    -1.7242    -2.2257 H       
  63 H63           -2.8545    -3.0945    -1.2471 H       
  64 H64            3.7854     5.4866     0.9158 H       
  65 H65            0.3234     4.2417     3.0826 H       
  66 H66           -6.5374    -0.1821     1.2714 H       
  67 H67           -6.1905    -0.9986    -0.2717 H       
  68 H68            1.9493     5.7200     4.1160 H       
  69 H69            3.3954     6.2443     3.2203 H       
  70 H70            0.5449     7.4821     4.5904 H       
  71 H71           -0.6162     9.5694     3.8997 H       
  72 H72           -0.1390    10.5062     1.6470 H       
  73 H73            2.3835    10.1968    -0.1480 H       
  74 H74            1.7969     8.6888    -0.8897 H       
  75 H75            0.6670    10.0310    -0.5893 H       
  76 H76           -3.1953    -3.5222    -3.6657 H       
  77 H77           -4.7526    -3.4120    -2.8107 H       
  78 H78           -3.4176    -1.1566    -4.3752 H       
  79 H79           -5.5518     0.0365    -3.9628 H       
  80 H80           -6.1287    -1.3339    -2.9842 H       
  81 H81           -5.2110     0.4641    -1.5442 H       
  82 H82           -3.6537     0.3539    -2.3992 H       
  83 H83           -5.3472    -1.9377    -7.2058 H       
  84 H84           -5.2199    -0.4668    -6.2114 H       
  85 H85           -3.7548    -1.3852    -6.6337 H       
  86 H86            0.2091    -3.7206     0.7432 H       
@<TRIPOS>BOND
   1    1    2 ar
   2    1    7 1
   3    1    6 ar
   4    2    3 ar
   5    2   47 1
   6    3    4 ar
   7    3   48 1
   8    4    5 ar
   9    4    9 1
  10    5    6 ar
  11    5   44 1
  12    6   49 1
  13    7    8 1
  14    8   21 ar
  15    8   18 ar
  16    9   10 am
  17    9   19 1
  18   10   12 2
  19   10   11 1
  20   11   13 1
  21   11   25 1
  22   11   50 1
  23   13   16 1
  24   13   51 1
  25   13   52 1
  26   14   15 1
  27   14   25 1
  28   14   53 1
  29   14   54 1
  30   15   16 1
  31   15   17 1
  32   15   55 1
  33   16   56 1
  34   16   57 1
  35   17   58 1
  36   17   59 1
  37   17   60 1
  38   18   24 ar
  39   19   20 1
  40   19   37 1
  41   19   61 1
  42   20   34 1
  43   20   62 1
  44   20   63 1
  45   21   22 ar
  46   21   40 1
  47   22   23 ar
  48   22   64 1
  49   23   24 ar
  50   23   26 1
  51   24   65 1
  52   25   66 1
  53   25   67 1
  54   26   27 1
  55   26   68 1
  56   26   69 1
  57   27   28 ar
  58   27   32 ar
  59   28   29 ar
  60   28   70 1
  61   29   30 ar
  62   29   71 1
  63   30   31 ar
  64   30   72 1
  65   31   32 ar
  66   31   33 1
  67   33   73 1
  68   33   74 1
  69   33   75 1
  70   34   35 1
  71   34   76 1
  72   34   77 1
  73   35   36 1
  74   35   38 1
  75   35   78 1
  76   36   37 1
  77   36   79 1
  78   36   80 1
  79   37   81 1
  80   37   82 1
  81   38   39 1
  82   39   83 1
  83   39   84 1
  84   39   85 1
  85   40   41 1
  86   40   42 1
  87   40   43 1
  88   44   45 2
  89   44   46 1
  90   46   86 1

#	End of record

