#	Name: ASD01870195
#	Creating user name:	WinNT
#	Creation time:	15. 06. 2019 19:38

#	Modifying user name:	WinNT
#	Modification time:	15. 06. 2019 19:38

#	Program:	/corina/corina34_cracker 3.40 0067  02.08.2006

@<TRIPOS>MOLECULE
ASD01870195
  54   58    0    0    0
SMALL
NO_CHARGES


@<TRIPOS>ATOM
   1 C1             0.6394     0.9651    -2.1639 C.ar    
   2 C2             0.5060    -0.3296    -1.6668 C.ar    
   3 C3             1.4130    -0.8409    -0.7890 C.ar    
   4 C4             2.5011    -0.0557    -0.3757 C.ar    
   5 C5             2.6380     1.2631    -0.8821 C.ar    
   6 C6             1.6807     1.7562    -1.7865 C.ar    
   7 C7             3.4563    -0.5534     0.5295 C.ar    
   8 C8             4.5005     0.2221     0.9153 C.ar    
   9 C9             4.6499     1.5332     0.4220 C.ar    
  10 C10            3.7224     2.0459    -0.4710 C.ar    
  11 C11            5.6720     2.5681     0.6740 C.2     
  12 N12            5.3952     3.6790    -0.0301 N.am    
  13 C13            4.1659     3.4496    -0.7979 C.3     
  14 C14            6.1876     4.9112    -0.0312 C.3     
  15 C15            7.0595     4.9579    -1.2897 C.3     
  16 C16            6.1534     4.9995    -2.5241 C.3     
  17 C17            5.2178     6.2068    -2.4203 C.3     
  18 O18            4.4584     6.1169    -1.2130 O.3     
  19 C19            5.2506     6.1219    -0.0237 C.3     
  20 C20            3.3189    -1.9523     1.0727 C.3     
  21 C21            3.9365    -2.9295     0.1060 C.ar    
  22 C22            5.2702    -3.2692     0.2139 C.ar    
  23 N23            5.8207    -4.1238    -0.6275 N.ar    
  24 C24            5.1239    -4.6858    -1.6010 C.ar    
  25 C25            3.7769    -4.3904    -1.7689 C.ar    
  26 C26            3.1690    -3.5022    -0.8992 C.ar    
  27 O27            6.6276     2.4348     1.4135 O.2     
  28 O28            7.8858     3.7933    -1.3423 O.3     
  29 O29            5.7304    -5.5590    -2.4439 O.3     
  30 C30            7.1171    -5.8208    -2.2191 C.3     
  31 H31           -0.0916     1.3450    -2.8622 H       
  32 H32           -0.3296    -0.9368    -1.9822 H       
  33 H33            1.2955    -1.8461    -0.4120 H       
  34 H34            1.7719     2.7576    -2.1805 H       
  35 H35            5.2273    -0.1711     1.6107 H       
  36 H36            4.3681     3.5399    -1.8652 H       
  37 H37            3.3987     4.1641    -0.4994 H       
  38 H38            6.8235     4.9361     0.8537 H       
  39 H39            7.6855     5.8500    -1.2667 H       
  40 H40            6.7649     5.0887    -3.4220 H       
  41 H41            5.5632     4.0845    -2.5736 H       
  42 H42            5.8072     7.1237    -2.4115 H       
  43 H43            4.5416     6.2172    -3.2751 H       
  44 H44            4.5981     6.0712     0.8479 H       
  45 H45            5.8404     7.0377     0.0164 H       
  46 H46            3.8286    -2.0206     2.0338 H       
  47 H47            2.2630    -2.1890     1.2038 H       
  48 H48            5.8707    -2.8297     0.9966 H       
  49 H49            3.2108    -4.8508    -2.5651 H       
  50 H50            2.1233    -3.2537    -1.0051 H       
  51 H51            8.4655     3.7569    -2.1154 H       
  52 H52            7.6808    -4.8917    -2.3045 H       
  53 H53            7.2512    -6.2366    -1.2205 H       
  54 H54            7.4772    -6.5337    -2.9609 H       
@<TRIPOS>BOND
   1    1    2 ar
   2    1    6 ar
   3    1   31 1
   4    2    3 ar
   5    2   32 1
   6    3    4 ar
   7    3   33 1
   8    4    5 ar
   9    4    7 ar
  10    5    6 ar
  11    5   10 ar
  12    6   34 1
  13    7    8 ar
  14    7   20 1
  15    8    9 ar
  16    8   35 1
  17    9   10 ar
  18    9   11 1
  19   10   13 1
  20   11   12 am
  21   11   27 2
  22   12   13 1
  23   12   14 1
  24   13   36 1
  25   13   37 1
  26   14   15 1
  27   14   19 1
  28   14   38 1
  29   15   16 1
  30   15   28 1
  31   15   39 1
  32   16   17 1
  33   16   40 1
  34   16   41 1
  35   17   18 1
  36   17   42 1
  37   17   43 1
  38   18   19 1
  39   19   44 1
  40   19   45 1
  41   20   21 1
  42   20   46 1
  43   20   47 1
  44   21   22 ar
  45   21   26 ar
  46   22   23 ar
  47   22   48 1
  48   23   24 ar
  49   24   25 ar
  50   24   29 1
  51   25   26 ar
  52   25   49 1
  53   26   50 1
  54   28   51 1
  55   29   30 1
  56   30   52 1
  57   30   53 1
  58   30   54 1

#	End of record

