#	Name: ASD08390008
#	Creating user name:	WinNT
#	Creation time:	15. 06. 2019 21:19

#	Modifying user name:	WinNT
#	Modification time:	15. 06. 2019 21:19

#	Program:	/corina/corina34_cracker 3.40 0067  02.08.2006

@<TRIPOS>MOLECULE
ASD08390008
  60   64    0    0    0
SMALL
NO_CHARGES


@<TRIPOS>ATOM
   1 N1            -0.1280     1.4871    -0.0626 N.2     
   2 C2             0.0756     0.0363     0.0554 C.3     
   3 C3             1.6097    -0.1200     0.0807 C.3     
   4 N4             2.0874     1.2692    -0.0267 N.pl3   
   5 C5             1.0028     2.0909    -0.1016 C.2     
   6 C6            -0.2539     4.1992    -0.2811 C.ar    
   7 C7            -0.8951     4.5749     0.8845 C.ar    
   8 C8            -2.1553     5.1404     0.8287 C.ar    
   9 C9            -2.7741     5.3305    -0.3927 C.ar    
  10 C10           -2.1325     4.9556    -1.5583 C.ar    
  11 C11           -0.8729     4.3888    -1.5024 C.ar    
  12 C12            1.1225     3.5884    -0.2206 C.3     
  13 C13           -0.5300    -0.4807     1.3348 C.ar    
  14 C14           -0.8619     0.3998     2.3475 C.ar    
  15 C15           -1.4175    -0.0744     3.5212 C.ar    
  16 C16           -1.6415    -1.4290     3.6819 C.ar    
  17 C17           -1.3104    -2.3093     2.6688 C.ar    
  18 C18           -0.7589    -1.8347     1.4935 C.ar    
  19 C19            3.9819     1.7270    -1.4724 C.ar    
  20 C20            3.8599     2.8833    -2.2201 C.ar    
  21 C21            4.3172     2.9147    -3.5242 C.ar    
  22 C22            4.8969     1.7898    -4.0806 C.ar    
  23 C23            5.0198     0.6338    -3.3326 C.ar    
  24 C24            4.5613     0.6021    -2.0290 C.ar    
  25 C25            3.4890     1.6948    -0.0487 C.3     
  26 C26            2.0607    -0.7396     1.3783 C.ar    
  27 C27            2.3435    -2.0914     1.4372 C.ar    
  28 C28            2.7572    -2.6597     2.6275 C.ar    
  29 C29            2.8884    -1.8762     3.7587 C.ar    
  30 C30            2.6064    -0.5242     3.6996 C.ar    
  31 C31            2.1969     0.0450     2.5083 C.ar    
  32 C32           -0.5126    -0.6790    -1.1335 C.2     
  33 O33            0.0417    -1.6514    -1.5885 O.2     
  34 O34           -1.6523    -0.2357    -1.6871 O.3     
  35 H35            1.9508    -0.7115    -0.7690 H       
  36 H36           -0.4117     4.4264     1.8388 H       
  37 H37           -2.6565     5.4333     1.7394 H       
  38 H38           -3.7589     5.7716    -0.4363 H       
  39 H39           -2.6162     5.1034    -2.5126 H       
  40 H40           -0.3719     4.0952    -2.4131 H       
  41 H41            1.6561     3.9802     0.6453 H       
  42 H42            1.6709     3.8380    -1.1289 H       
  43 H43           -0.6869     1.4581     2.2220 H       
  44 H44           -1.6761     0.6134     4.3127 H       
  45 H45           -2.0749    -1.7996     4.5991 H       
  46 H46           -1.4852    -3.3677     2.7946 H       
  47 H47           -0.5037    -2.5220     0.7005 H       
  48 H48            3.4069     3.7621    -1.7854 H       
  49 H49            4.2212     3.8178    -4.1086 H       
  50 H50            5.2536     1.8141    -5.0997 H       
  51 H51            5.4721    -0.2452    -3.7675 H       
  52 H52            4.6566    -0.3013    -1.4448 H       
  53 H53            3.5734     2.6901     0.3876 H       
  54 H54            4.0910     0.9929     0.5284 H       
  55 H55            2.2410    -2.7036     0.5534 H       
  56 H56            2.9775    -3.7160     2.6737 H       
  57 H57            3.2108    -2.3204     4.6889 H       
  58 H58            2.7085     0.0879     4.5835 H       
  59 H59            1.9802     1.1019     2.4611 H       
  60 H60           -1.9910    -0.7272    -2.4478 H       
@<TRIPOS>BOND
   1    1    2 1
   2    1    5 2
   3    2   13 1
   4    2   32 1
   5    2    3 1
   6    3    4 1
   7    3   26 1
   8    3   35 1
   9    4    5 1
  10    4   25 1
  11    5   12 1
  12    6    7 ar
  13    6   11 ar
  14    6   12 1
  15    7    8 ar
  16    7   36 1
  17    8    9 ar
  18    8   37 1
  19    9   10 ar
  20    9   38 1
  21   10   11 ar
  22   10   39 1
  23   11   40 1
  24   12   41 1
  25   12   42 1
  26   13   14 ar
  27   13   18 ar
  28   14   15 ar
  29   14   43 1
  30   15   16 ar
  31   15   44 1
  32   16   17 ar
  33   16   45 1
  34   17   18 ar
  35   17   46 1
  36   18   47 1
  37   19   20 ar
  38   19   24 ar
  39   19   25 1
  40   20   21 ar
  41   20   48 1
  42   21   22 ar
  43   21   49 1
  44   22   23 ar
  45   22   50 1
  46   23   24 ar
  47   23   51 1
  48   24   52 1
  49   25   53 1
  50   25   54 1
  51   26   27 ar
  52   26   31 ar
  53   27   28 ar
  54   27   55 1
  55   28   29 ar
  56   28   56 1
  57   29   30 ar
  58   29   57 1
  59   30   31 ar
  60   30   58 1
  61   31   59 1
  62   32   33 2
  63   32   34 1
  64   34   60 1

#	End of record

