#	Name: ASD01883859
#	Creating user name:	WinNT
#	Creation time:	15. 06. 2019 19:47

#	Modifying user name:	WinNT
#	Modification time:	15. 06. 2019 19:47

#	Program:	/corina/corina34_cracker 3.40 0067  02.08.2006

@<TRIPOS>MOLECULE
ASD01883859
  47   50    0    0    0
SMALL
NO_CHARGES


@<TRIPOS>ATOM
   1 O1            -0.0282     1.3406     0.0386 O.3     
   2 C2             0.0014    -0.0164     0.0224 C.2     
   3 C3             1.1959    -2.0822    -0.1267 C.2     
   4 C4             1.1901    -0.6762    -0.1125 C.2     
   5 C5            -1.1942    -0.7534     0.1504 C.2     
   6 C6            -1.1673    -2.1010     0.1349 C.2     
   7 N7             1.6422    -4.1661    -0.1958 N.2     
   8 N8             2.1557    -2.9872    -0.2394 N.2     
   9 N9             0.0133    -2.7701    -0.0044 N.pl3   
  10 C10            0.3449    -4.0916    -0.0535 C.2     
  11 C11           -0.6098    -5.2540     0.0389 C.3     
  12 C12           -0.7768    -5.6615     1.5041 C.3     
  13 C13           -1.8008    -6.7532     1.8214 C.3     
  14 C14           -0.3043    -7.0599     1.9067 C.3     
  15 C15            2.4790     0.0933    -0.2449 C.3     
  16 F16            2.1985     1.4611    -0.3324 F       
  17 F17            3.2828    -0.1472     0.8745 F       
  18 F18            3.1521    -0.3195    -1.3998 F       
  19 C19           -0.6947     1.9881    -1.0470 C.3     
  20 C20           -0.7325     3.4968    -0.7953 C.3     
  21 C21           -1.3246     4.1914    -1.9945 C.ar    
  22 C22           -1.1240     5.7692    -3.7843 C.ar    
  23 C23           -2.4113     5.4665    -4.1948 C.ar    
  24 C24           -3.1560     4.5288    -3.4995 C.ar    
  25 C25           -2.6120     3.8925    -2.4000 C.ar    
  26 C26           -0.5820     5.1312    -2.6847 C.ar    
  27 C27           -1.5910     3.7867     0.4375 C.3     
  28 F28           -2.9424     6.0899    -5.2693 F       
  29 H29           -2.1355    -0.2358     0.2617 H       
  30 H30           -2.0885    -2.6559     0.2341 H       
  31 H31           -1.5774    -4.9628    -0.3699 H       
  32 H32           -0.2136    -6.0955    -0.5294 H       
  33 H33           -0.6543    -4.8595     2.2320 H       
  34 H34           -2.3516    -6.6696     2.7582 H       
  35 H35           -2.3554    -7.1810     0.9862 H       
  36 H36            0.1256    -7.6896     1.1277 H       
  37 H37            0.1294    -7.1781     2.8997 H       
  38 H38           -0.1578     1.7878    -1.9743 H       
  39 H39           -1.7129     1.6074    -1.1272 H       
  40 H40            0.2804     3.8626    -0.6269 H       
  41 H41           -0.5422     6.5004    -4.3258 H       
  42 H42           -4.1603     4.2922    -3.8186 H       
  43 H43           -3.1926     3.1611    -1.8576 H       
  44 H44            0.4221     5.3671    -2.3644 H       
  45 H45           -1.6180     4.8616     0.6168 H       
  46 H46           -2.6039     3.4210     0.2691 H       
  47 H47           -1.1628     3.2843     1.3048 H       
@<TRIPOS>BOND
   1    1    2 1
   2    1   19 1
   3    2    5 1
   4    2    4 2
   5    3    4 1
   6    3    9 1
   7    3    8 2
   8    4   15 1
   9    5    6 2
  10    5   29 1
  11    6    9 1
  12    6   30 1
  13    7    8 1
  14    7   10 2
  15    9   10 1
  16   10   11 1
  17   11   12 1
  18   11   31 1
  19   11   32 1
  20   12   13 1
  21   12   14 1
  22   12   33 1
  23   13   14 1
  24   13   34 1
  25   13   35 1
  26   14   36 1
  27   14   37 1
  28   15   16 1
  29   15   17 1
  30   15   18 1
  31   19   20 1
  32   19   38 1
  33   19   39 1
  34   20   21 1
  35   20   27 1
  36   20   40 1
  37   21   26 ar
  38   21   25 ar
  39   22   23 ar
  40   22   26 ar
  41   22   41 1
  42   23   24 ar
  43   23   28 1
  44   24   25 ar
  45   24   42 1
  46   25   43 1
  47   26   44 1
  48   27   45 1
  49   27   46 1
  50   27   47 1

#	End of record

