#	Name: ASD01148365
#	Creating user name:	WinNT
#	Creation time:	15. 06. 2019 19:02

#	Modifying user name:	WinNT
#	Modification time:	15. 06. 2019 19:02

#	Program:	/corina/corina34_cracker 3.40 0067  02.08.2006

@<TRIPOS>MOLECULE
ASD01148365
  51   54    0    0    0
SMALL
NO_CHARGES


@<TRIPOS>ATOM
   1 C1            -0.4096     1.8308    -0.0442 C.ar    
   2 C2            -0.4705     0.4513     0.0158 C.ar    
   3 C3             0.6943    -0.2893     0.0950 C.ar    
   4 C4             1.9197     0.3498     0.1136 C.ar    
   5 C5             1.9807     1.7297     0.0526 C.ar    
   6 C6             0.8162     2.4701    -0.0251 C.ar    
   7 C7             3.3167     2.4266     0.0740 C.3     
   8 O8             4.3317     1.6159    -0.5522 O.3     
   9 C9             3.3042     3.6761    -0.8386 C.3     
  10 C10            3.8467     3.1340    -2.1473 C.2     
  11 N11            4.3978     1.9902    -1.9140 N.2     
  12 C12            3.7588     3.7996    -3.4618 C.ar    
  13 C13            4.3034     3.1865    -4.5933 C.ar    
  14 C14            3.1261     5.0400    -3.5759 C.ar    
  15 C15            3.0442     5.6607    -4.8019 C.ar    
  16 C16            3.5933     5.0502    -5.9321 C.ar    
  17 C17            4.2214     3.8071    -5.8190 C.ar    
  18 C18            3.5049     5.7162    -7.2479 C.2     
  19 O19            4.0774     5.2411    -8.2092 O.2     
  20 N20            2.7895     6.8505    -7.3824 N.am    
  21 C21            4.8138     3.1485    -7.0382 C.3     
  22 C22            3.7158     2.7958     1.5041 C.3     
  23 F23            3.7859     1.6358     2.2829 F       
  24 F24            4.9650     3.4255     1.4918 F       
  25 F25            2.7613     3.6638     2.0452 F       
  26 C26            2.7065     7.4763    -8.6189 C.ar    
  27 N27            1.9993     8.5901    -8.7332 N.ar    
  28 N28            3.3408     6.9481    -9.6544 N.ar    
  29 C29            3.2824     7.5188   -10.8462 C.ar    
  30 C30            2.5464     8.6829   -11.0028 C.ar    
  31 C31            1.8996     9.2115    -9.8966 C.ar    
  32 C32            0.6279    -1.7934     0.1615 C.3     
  33 F33           -0.7094    -2.2030     0.1284 F       
  34 F34            1.3099    -2.3390    -0.9314 F       
  35 F35            1.2214    -2.2343     1.3491 F       
  36 H36           -1.3193     2.4091    -0.1106 H       
  37 H37           -1.4280    -0.0481     0.0013 H       
  38 H38            2.8295    -0.2287     0.1762 H       
  39 H39            0.8638     3.5480    -0.0724 H       
  40 H40            2.2889     4.0517    -0.9665 H       
  41 H41            3.9578     4.4524    -0.4407 H       
  42 H42            4.7889     2.2257    -4.5060 H       
  43 H43            2.7009     5.5117    -2.7023 H       
  44 H44            2.5551     6.6196    -4.8901 H       
  45 H45            2.3327     7.2296    -6.6153 H       
  46 H46            5.8105     3.5504    -7.2201 H       
  47 H47            4.8800     2.0730    -6.8741 H       
  48 H48            4.1792     3.3458    -7.9022 H       
  49 H49            3.8022     7.0834   -11.6868 H       
  50 H50            2.4821     9.1700   -11.9646 H       
  51 H51            1.3177    10.1170    -9.9845 H       
@<TRIPOS>BOND
   1    1    2 ar
   2    1    6 ar
   3    1   36 1
   4    2    3 ar
   5    2   37 1
   6    3    4 ar
   7    3   32 1
   8    4    5 ar
   9    4   38 1
  10    5    6 ar
  11    5    7 1
  12    6   39 1
  13    7    8 1
  14    7    9 1
  15    7   22 1
  16    8   11 1
  17    9   10 1
  18    9   40 1
  19    9   41 1
  20   10   11 2
  21   10   12 1
  22   12   13 ar
  23   12   14 ar
  24   13   17 ar
  25   13   42 1
  26   14   15 ar
  27   14   43 1
  28   15   16 ar
  29   15   44 1
  30   16   17 ar
  31   16   18 1
  32   17   21 1
  33   18   19 2
  34   18   20 am
  35   20   26 1
  36   20   45 1
  37   21   46 1
  38   21   47 1
  39   21   48 1
  40   22   23 1
  41   22   24 1
  42   22   25 1
  43   26   27 ar
  44   26   28 ar
  45   27   31 ar
  46   28   29 ar
  47   29   30 ar
  48   29   49 1
  49   30   31 ar
  50   30   50 1
  51   31   51 1
  52   32   33 1
  53   32   34 1
  54   32   35 1

#	End of record

