#	Name: ASD03730355
#	Creating user name:	WinNT
#	Creation time:	15. 06. 2019 20:44

#	Modifying user name:	WinNT
#	Modification time:	15. 06. 2019 20:44

#	Program:	/corina/corina34_cracker 3.40 0067  02.08.2006

@<TRIPOS>MOLECULE
ASD03730355
  60   66    0    0    0
SMALL
NO_CHARGES


@<TRIPOS>ATOM
   1 O1             0.3623     1.5749    -2.0473 O.3     
   2 C2             0.4367     0.1639    -2.3242 C.3     
   3 O3             1.7514    -0.0062    -2.8856 O.3     
   4 C4             2.5068     1.0027    -2.3597 C.ar    
   5 C5             1.6522     1.9750    -1.8454 C.ar    
   6 C6             3.8772     1.1721    -2.2763 C.ar    
   7 C7             4.4118     2.3112    -1.6820 C.ar    
   8 C8             3.5481     3.2795    -1.1792 C.ar    
   9 C9             2.1812     3.1105    -1.2553 C.ar    
  10 O10            5.7151     2.6613    -1.4846 O.3     
  11 C11            4.4131     4.3848    -0.6353 C.3     
  12 C12            5.7934     4.0775    -1.2316 C.3     
  13 N13            3.6971     6.4262     0.1025 N.am    
  14 C14            3.9189     5.7441    -1.0388 C.2     
  15 C15            4.4421     4.4011     0.8643 C.ar    
  16 C16            4.7971     3.4743     1.8190 C.ar    
  17 C17            4.7135     3.7962     3.1619 C.ar    
  18 C18            4.2727     5.0505     3.5428 C.ar    
  19 C19            3.9152     5.9820     2.5904 C.ar    
  20 C20            3.9964     5.6669     1.2362 C.ar    
  21 O21            3.7525     6.1491    -2.1699 O.2     
  22 C22            3.2006     7.8037     0.1486 C.3     
  23 C23            4.3666     8.7559     0.2175 C.ar    
  24 C24            4.1468    10.1342     0.1898 C.ar    
  25 C25            5.2321    11.0092     0.2544 C.ar    
  26 C26            6.5143    10.5075     0.3452 C.ar    
  27 C27            6.7252     9.1406     0.3718 C.ar    
  28 C28            5.6530     8.2676     0.3137 C.ar    
  29 C29            2.7703    10.6647     0.0919 C.2     
  30 O30            2.0319    10.2793    -0.7934 O.2     
  31 N31            2.3341    11.5756     0.9843 N.am    
  32 C32            0.9420    12.0521     0.9615 C.3     
  33 C33            0.3660    11.9302     2.3769 C.3     
  34 O34            1.2441    12.5790     3.2999 O.3     
  35 C35            2.5480    11.9974     3.3748 C.3     
  36 C36            3.2342    12.1185     2.0141 C.3     
  37 H37            0.3354    -0.4126    -1.4047 H       
  38 H38           -0.3279    -0.1256    -3.0451 H       
  39 H39            4.5365     0.4151    -2.6747 H       
  40 H40            1.5220     3.8660    -0.8541 H       
  41 H41            6.5833     4.2994    -0.5140 H       
  42 H42            5.9458     4.6287    -2.1595 H       
  43 H43            5.1406     2.4953     1.5191 H       
  44 H44            4.9914     3.0696     3.9110 H       
  45 H45            4.2078     5.3018     4.5911 H       
  46 H46            3.5712     6.9591     2.8959 H       
  47 H47            2.6159     8.0094    -0.7480 H       
  48 H48            2.5724     7.9342     1.0298 H       
  49 H49            5.0688    12.0765     0.2331 H       
  50 H50            7.3550    11.1835     0.3953 H       
  51 H51            7.7308     8.7530     0.4426 H       
  52 H52            5.8242     7.2016     0.3394 H       
  53 H53            0.9159    13.0943     0.6430 H       
  54 H54            0.3566    11.4426     0.2732 H       
  55 H55           -0.6148    12.4043     2.4129 H       
  56 H56            0.2722    10.8772     2.6423 H       
  57 H57            3.1368    12.5198     4.1288 H       
  58 H58            2.4621    10.9446     3.6439 H       
  59 H59            4.1659    11.5529     2.0224 H       
  60 H60            3.4428    13.1674     1.8034 H       
@<TRIPOS>BOND
   1    1    2 1
   2    1    5 1
   3    2    3 1
   4    2   37 1
   5    2   38 1
   6    3    4 1
   7    4    5 ar
   8    4    6 ar
   9    5    9 ar
  10    6    7 ar
  11    6   39 1
  12    7    8 ar
  13    7   10 1
  14    8    9 ar
  15    8   11 1
  16    9   40 1
  17   10   12 1
  18   11   12 1
  19   11   14 1
  20   11   15 1
  21   12   41 1
  22   12   42 1
  23   13   14 am
  24   13   20 1
  25   13   22 1
  26   14   21 2
  27   15   16 ar
  28   15   20 ar
  29   16   17 ar
  30   16   43 1
  31   17   18 ar
  32   17   44 1
  33   18   19 ar
  34   18   45 1
  35   19   20 ar
  36   19   46 1
  37   22   23 1
  38   22   47 1
  39   22   48 1
  40   23   24 ar
  41   23   28 ar
  42   24   25 ar
  43   24   29 1
  44   25   26 ar
  45   25   49 1
  46   26   27 ar
  47   26   50 1
  48   27   28 ar
  49   27   51 1
  50   28   52 1
  51   29   30 2
  52   29   31 am
  53   31   32 1
  54   31   36 1
  55   32   33 1
  56   32   53 1
  57   32   54 1
  58   33   34 1
  59   33   55 1
  60   33   56 1
  61   34   35 1
  62   35   36 1
  63   35   57 1
  64   35   58 1
  65   36   59 1
  66   36   60 1

#	End of record

