#	Name: ASD01912354
#	Creating user name:	WinNT
#	Creation time:	15. 06. 2019 19:59

#	Modifying user name:	WinNT
#	Modification time:	15. 06. 2019 19:59

#	Program:	/corina/corina34_cracker 3.40 0067  02.08.2006

@<TRIPOS>MOLECULE
ASD01912354
  47   49    0    0    0
SMALL
NO_CHARGES


@<TRIPOS>ATOM
   1 C1            -0.1285     1.6221    -1.1900 C.ar    
   2 C2            -0.1102     0.2362    -1.3725 C.ar    
   3 C3             1.1014    -0.3975    -1.5787 C.ar    
   4 C4             2.2579     0.3711    -1.5964 C.ar    
   5 C5             2.1685     1.7383    -1.4091 C.ar    
   6 N6             1.0031     2.3204    -1.2143 N.ar    
   7 C7             3.4223     2.5742    -1.4280 C.3     
   8 C8            -1.3750     2.2953    -0.9812 C.1     
   9 C9            -2.3970     2.8472    -0.8100 C.1     
  10 C10           -3.6435     3.5204    -0.6013 C.2     
  11 N11           -3.6029     7.1935     0.9992 N.am    
  12 C12           -4.8462     6.4151     1.0696 C.3     
  13 C13           -4.9729     5.5708    -0.2048 C.3     
  14 C14           -3.6663     4.8410    -0.4268 C.2     
  15 C15           -2.3864     5.6474    -0.4464 C.3     
  16 C16           -2.3245     6.4898     0.8341 C.3     
  17 C17           -3.6352     8.5385     1.0796 C.2     
  18 C18           -2.3730     9.3060     1.1388 C.ar    
  19 C19           -2.2229    10.4680     0.3799 C.ar    
  20 C20           -1.0429    11.1798     0.4401 C.ar    
  21 C21           -0.0090    10.7440     1.2501 C.ar    
  22 C22           -0.1511     9.5931     2.0044 C.ar    
  23 C23           -1.3286     8.8752     1.9581 C.ar    
  24 O24           -4.7021     9.1204     1.1035 O.2     
  25 C25           -0.8790    12.4344    -0.3785 C.3     
  26 H26           -1.0288    -0.3312    -1.3524 H       
  27 H27            1.1473    -1.4669    -1.7224 H       
  28 H28            3.2191    -0.0951    -1.7549 H       
  29 H29            3.6211     2.9079    -2.4464 H       
  30 H30            3.2907     3.4413    -0.7807 H       
  31 H31            4.2618     1.9780    -1.0705 H       
  32 H32           -4.5651     2.9576    -0.5852 H       
  33 H33           -4.8186     5.7603     1.9405 H       
  34 H34           -5.6972     7.0920     1.1456 H       
  35 H35           -5.7812     4.8489    -0.0879 H       
  36 H36           -5.1800     6.2196    -1.0558 H       
  37 H37           -1.5295     4.9748    -0.4849 H       
  38 H38           -2.3787     6.3026    -1.3174 H       
  39 H39           -1.5153     7.2159     0.7550 H       
  40 H40           -2.1520     5.8393     1.6915 H       
  41 H41           -3.0288    10.8088    -0.2532 H       
  42 H42            0.9130    11.3047     1.2934 H       
  43 H43            0.6597     9.2581     2.6343 H       
  44 H44           -1.4399     7.9793     2.5508 H       
  45 H45           -1.2149    13.2935     0.2022 H       
  46 H46            0.1710    12.5619    -0.6418 H       
  47 H47           -1.4746    12.3552    -1.2879 H       
@<TRIPOS>BOND
   1    1    2 ar
   2    1    6 ar
   3    1    8 1
   4    2    3 ar
   5    2   26 1
   6    3    4 ar
   7    3   27 1
   8    4    5 ar
   9    4   28 1
  10    5    6 ar
  11    5    7 1
  12    7   29 1
  13    7   30 1
  14    7   31 1
  15    8    9 3
  16    9   10 1
  17   10   14 2
  18   10   32 1
  19   11   12 1
  20   11   16 1
  21   11   17 am
  22   12   13 1
  23   12   33 1
  24   12   34 1
  25   13   14 1
  26   13   35 1
  27   13   36 1
  28   14   15 1
  29   15   16 1
  30   15   37 1
  31   15   38 1
  32   16   39 1
  33   16   40 1
  34   17   18 1
  35   17   24 2
  36   18   19 ar
  37   18   23 ar
  38   19   20 ar
  39   19   41 1
  40   20   21 ar
  41   20   25 1
  42   21   22 ar
  43   21   42 1
  44   22   23 ar
  45   22   43 1
  46   23   44 1
  47   25   45 1
  48   25   46 1
  49   25   47 1

#	End of record

