#	Name: ASD01920044
#	Creating user name:	WinNT
#	Creation time:	15. 06. 2019 20:11

#	Modifying user name:	WinNT
#	Modification time:	15. 06. 2019 20:11

#	Program:	/corina/corina34_cracker 3.40 0067  02.08.2006

@<TRIPOS>MOLECULE
ASD01920044
  55   57    0    0    0
SMALL
NO_CHARGES


@<TRIPOS>ATOM
   1 N1            -0.0165     1.3635     0.0095 N.pl3   
   2 C2             0.0021    -0.0041     0.0020 C.2     
   3 C3            -1.2606    -0.4618     0.0116 C.2     
   4 C4            -2.1316     0.7217     0.0263 C.2     
   5 C5            -1.2864     1.8150     0.0299 C.2     
   6 C6             1.2417    -0.8608    -0.0149 C.3     
   7 C7            -1.7109     3.2609     0.0440 C.3     
   8 C8             1.1199     2.1773     0.0031 C.ar    
   9 C9            -3.5959     0.7390     0.0396 C.2     
  10 O10           -4.1901     1.7969     0.0506 O.2     
  11 C11           -4.3647    -0.5572     0.0398 C.3     
  12 S12           -6.1441    -0.2047     0.0578 S.3     
  13 C13           -6.8878    -1.8592     0.0558 C.3     
  14 C14           -8.3896    -1.7349     0.0701 C.ar    
  15 C15           -9.0882    -1.6717    -1.1214 C.ar    
  16 C16            1.9697     2.1731    -1.0978 C.ar    
  17 C17            3.0902     2.9734    -1.1079 C.ar    
  18 C18            3.3728     3.7910    -0.0100 C.ar    
  19 C19            2.5161     3.7927     1.0944 C.ar    
  20 C20            1.3949     2.9933     1.0951 C.ar    
  21 C21            4.5725     4.6495    -0.0166 C.2     
  22 O22            5.3163     4.6465    -0.9773 O.2     
  23 O23            4.8433     5.4369     1.0427 O.3     
  24 C24            6.0405     6.2550     0.9670 C.3     
  25 C25           -9.0670    -1.6901     1.2746 C.ar    
  26 C26          -10.4437    -1.5766     1.2904 C.ar    
  27 C27          -11.1465    -1.5076     0.0963 C.ar    
  28 C28          -10.4649    -1.5577    -1.1110 C.ar    
  29 O29          -12.5009    -1.3964     0.1092 O.3     
  30 C30          -13.1585    -1.3305    -1.1578 C.3     
  31 H31           -1.5738    -1.4954     0.0087 H       
  32 H32            1.5508    -1.0729     1.0087 H       
  33 H33            1.0295    -1.7968    -0.5316 H       
  34 H34            2.0415    -0.3325    -0.5338 H       
  35 H35           -1.8075     3.6012     1.0750 H       
  36 H36           -0.9621     3.8644    -0.4691 H       
  37 H37           -2.6700     3.3630    -0.4636 H       
  38 H38           -4.1163    -1.1271    -0.8555 H       
  39 H39           -4.1001    -1.1365     0.9243 H       
  40 H40           -6.5762    -2.3966    -0.8399 H       
  41 H41           -6.5601    -2.4060     0.9399 H       
  42 H42           -8.5572    -1.7110    -2.0610 H       
  43 H43            1.7507     1.5412    -1.9458 H       
  44 H44            3.7501     2.9692    -1.9628 H       
  45 H45            2.7314     4.4228     1.9447 H       
  46 H46            0.7323     2.9944     1.9480 H       
  47 H47            5.9672     6.9281     0.1128 H       
  48 H48            6.1401     6.8388     1.8821 H       
  49 H49            6.9129     5.6123     0.8492 H       
  50 H50           -8.5194    -1.7442     2.2039 H       
  51 H51          -10.9723    -1.5420     2.2315 H       
  52 H52          -11.0099    -1.5042    -2.0419 H       
  53 H53          -12.9444    -2.2358    -1.7259 H       
  54 H54          -14.2342    -1.2434    -1.0048 H       
  55 H55          -12.7985    -0.4619    -1.7093 H       
@<TRIPOS>BOND
   1    1    2 1
   2    1    8 1
   3    1    5 1
   4    2    3 2
   5    2    6 1
   6    3    4 1
   7    3   31 1
   8    4    5 2
   9    4    9 1
  10    5    7 1
  11    6   32 1
  12    6   33 1
  13    6   34 1
  14    7   35 1
  15    7   36 1
  16    7   37 1
  17    8   16 ar
  18    8   20 ar
  19    9   10 2
  20    9   11 1
  21   11   12 1
  22   11   38 1
  23   11   39 1
  24   12   13 1
  25   13   14 1
  26   13   40 1
  27   13   41 1
  28   14   15 ar
  29   14   25 ar
  30   15   28 ar
  31   15   42 1
  32   16   17 ar
  33   16   43 1
  34   17   18 ar
  35   17   44 1
  36   18   19 ar
  37   18   21 1
  38   19   20 ar
  39   19   45 1
  40   20   46 1
  41   21   22 2
  42   21   23 1
  43   23   24 1
  44   24   47 1
  45   24   48 1
  46   24   49 1
  47   25   26 ar
  48   25   50 1
  49   26   27 ar
  50   26   51 1
  51   27   28 ar
  52   27   29 1
  53   28   52 1
  54   29   30 1
  55   30   53 1
  56   30   54 1
  57   30   55 1

#	End of record

