#	Name: ASD01882805
#	Creating user name:	WinNT
#	Creation time:	15. 06. 2019 19:45

#	Modifying user name:	WinNT
#	Modification time:	15. 06. 2019 19:45

#	Program:	/corina/corina34_cracker 3.40 0067  02.08.2006

@<TRIPOS>MOLECULE
ASD01882805
  41   44    0    0    0
SMALL
NO_CHARGES


@<TRIPOS>ATOM
   1 C1            -0.0136     1.3973     0.0607 C.2     
   2 C2            -0.0040     0.0034    -0.1390 C.2     
   3 C3            -1.1849    -0.6708    -0.1733 C.2     
   4 C4            -2.3926     0.0293    -0.0097 C.2     
   5 C5            -2.3863     1.3653     0.1805 C.2     
   6 N6            -1.2100     2.0548     0.2110 N.pl3   
   7 C7            -1.1982    -2.1626    -0.3863 C.3     
   8 O8            -1.9606    -2.7849     0.6497 O.3     
   9 C9             1.2994    -0.7327    -0.3133 C.3     
  10 C10           -1.6011    -4.0468     1.0080 C.ar    
  11 C11           -1.8294    -2.4782    -1.7438 C.3     
  12 N12            0.9391     2.3119     0.1414 N.2     
  13 N13            0.4087     3.4683     0.3346 N.2     
  14 C14           -0.8945     3.3671     0.3838 C.2     
  15 C15           -1.8688     4.4979     0.5914 C.3     
  16 F16            1.1943    -1.6183    -1.3912 F       
  17 F17            2.3242     0.1863    -0.5630 F       
  18 F18            1.5896    -1.4495     0.8525 F       
  19 C19           -1.7541     5.2999     1.8893 C.3     
  20 C20           -1.3133     5.9232     0.5633 C.3     
  21 C21           -0.6649    -4.2442     2.0140 C.ar    
  22 C22           -0.3016    -5.5292     2.3765 C.ar    
  23 C23           -0.8695    -6.6159     1.7378 C.ar    
  24 C24           -1.8018    -6.4226     0.7353 C.ar    
  25 C25           -2.1739    -5.1402     0.3725 C.ar    
  26 F26           -3.0894    -4.9522    -0.6031 F       
  27 F27           -0.1088    -3.1828     2.6380 F       
  28 H28           -3.3308    -0.5049    -0.0367 H       
  29 H29           -3.3202     1.8933     0.3047 H       
  30 H30           -0.1766    -2.5420    -0.3636 H       
  31 H31           -2.8510    -2.0988    -1.7666 H       
  32 H32           -1.2478    -2.0036    -2.5341 H       
  33 H33           -1.8390    -3.5573    -1.8979 H       
  34 H34           -2.8675     4.3385     0.1848 H       
  35 H35           -2.6773     5.6686     2.3363 H       
  36 H36           -0.9739     5.0097     2.5929 H       
  37 H37           -0.2431     6.0430     0.3947 H       
  38 H38           -1.9465     6.7019     0.1381 H       
  39 H39            0.4267    -5.6835     3.1590 H       
  40 H40           -0.5841    -7.6179     2.0223 H       
  41 H41           -2.2434    -7.2735     0.2380 H       
@<TRIPOS>BOND
   1    1    2 1
   2    1   12 2
   3    1    6 1
   4    2    9 1
   5    2    3 2
   6    3    4 1
   7    3    7 1
   8    4    5 2
   9    4   28 1
  10    5    6 1
  11    5   29 1
  12    6   14 1
  13    7    8 1
  14    7   11 1
  15    7   30 1
  16    8   10 1
  17    9   16 1
  18    9   17 1
  19    9   18 1
  20   10   21 ar
  21   10   25 ar
  22   11   31 1
  23   11   32 1
  24   11   33 1
  25   12   13 1
  26   13   14 2
  27   14   15 1
  28   15   19 1
  29   15   20 1
  30   15   34 1
  31   19   20 1
  32   19   35 1
  33   19   36 1
  34   20   37 1
  35   20   38 1
  36   21   22 ar
  37   21   27 1
  38   22   23 ar
  39   22   39 1
  40   23   24 ar
  41   23   40 1
  42   24   25 ar
  43   24   41 1
  44   25   26 1

#	End of record

