#	Name: ASD01440106
#	Creating user name:	WinNT
#	Creation time:	15. 06. 2019 19:21

#	Modifying user name:	WinNT
#	Modification time:	15. 06. 2019 19:21

#	Program:	/corina/corina34_cracker 3.40 0067  02.08.2006

@<TRIPOS>MOLECULE
ASD01440106
  34   36    0    0    0
SMALL
NO_CHARGES


@<TRIPOS>ATOM
   1 N1            -0.0161     1.3395     0.0094 N.am    
   2 C2             0.0021    -0.0041     0.0020 C.2     
   3 C3             1.4548    -0.4299    -0.0141 C.3     
   4 C4             2.2198     0.8736    -0.0144 C.ar    
   5 C5             3.5642     1.1700    -0.0261 C.ar    
   6 C6             3.9799     2.4906    -0.0233 C.ar    
   7 C7             3.0415     3.5071    -0.0089 C.ar    
   8 C8             1.6941     3.2122     0.0032 C.ar    
   9 C9             1.2682     1.8853     0.0001 C.ar    
  10 O10           -0.9637    -0.7377     0.0079 O.2     
  11 I11            6.0243     2.9483    -0.0403 I       
  12 O12            1.7659    -1.1928     1.1535 O.3     
  13 C13            1.5560    -0.6627    -2.5157 C.ar    
  14 C14            1.7593    -1.2211    -1.2601 C.ar    
  15 C15            2.2455    -2.5134    -1.1686 C.ar    
  16 C16            2.5125    -3.2050    -2.3424 C.ar    
  17 C17            2.2868    -2.5875    -3.5563 C.ar    
  18 N18            1.8224    -1.3535    -3.6115 N.ar    
  19 O19            1.0744     0.6015    -2.6189 O.3     
  20 C20            0.8873     1.1188    -3.9378 C.3     
  21 C21            0.3420     2.5459    -3.8533 C.3     
  22 H22           -0.8287     1.8692     0.0163 H       
  23 H23            4.2935     0.3735    -0.0369 H       
  24 H24            3.3658     4.5373    -0.0068 H       
  25 H25            0.9677     4.0113     0.0148 H       
  26 H26            1.2583    -2.0118     1.2350 H       
  27 H27            2.4137    -2.9734    -0.2061 H       
  28 H28            2.8931    -4.2150    -2.3063 H       
  29 H29            2.4933    -3.1210    -4.4724 H       
  30 H30            1.8416     1.1251    -4.4644 H       
  31 H31            0.1787     0.4905    -4.4774 H       
  32 H32           -0.6123     2.5396    -3.3267 H       
  33 H33            1.0506     3.1742    -3.3137 H       
  34 H34            0.1993     2.9405    -4.8593 H       
@<TRIPOS>BOND
   1    1    2 am
   2    1    9 1
   3    1   22 1
   4    2    3 1
   5    2   10 2
   6    3    4 1
   7    3   12 1
   8    3   14 1
   9    4    5 ar
  10    4    9 ar
  11    5    6 ar
  12    5   23 1
  13    6    7 ar
  14    6   11 1
  15    7    8 ar
  16    7   24 1
  17    8    9 ar
  18    8   25 1
  19   12   26 1
  20   13   14 ar
  21   13   18 ar
  22   13   19 1
  23   14   15 ar
  24   15   16 ar
  25   15   27 1
  26   16   17 ar
  27   16   28 1
  28   17   18 ar
  29   17   29 1
  30   19   20 1
  31   20   21 1
  32   20   30 1
  33   20   31 1
  34   21   32 1
  35   21   33 1
  36   21   34 1

#	End of record

