#	Name: ASD03430993
#	Creating user name:	WinNT
#	Creation time:	15. 06. 2019 20:41

#	Modifying user name:	WinNT
#	Modification time:	15. 06. 2019 20:41

#	Program:	/corina/corina34_cracker 3.40 0067  02.08.2006

@<TRIPOS>MOLECULE
ASD03430993
  68   73    0    0    0
SMALL
NO_CHARGES


@<TRIPOS>ATOM
   1 O1            -0.0173     1.4278     0.0099 O.3     
   2 C2             0.0021    -0.0041     0.0020 C.3     
   3 C3             1.0250    -0.4754     1.0444 C.3     
   4 O4             2.3064     0.0538     0.6873 O.3     
   5 C5             2.3518     1.3707     0.3444 C.ar    
   6 C6             1.1912     2.0550     0.0017 C.ar    
   7 C7             3.5703     2.0291     0.3404 C.ar    
   8 C8             3.6450     3.3730    -0.0119 C.ar    
   9 C9             2.4786     4.0435    -0.3679 C.ar    
  10 C10            1.2629     3.3927    -0.3553 C.ar    
  11 O11            4.7262     4.2029    -0.0611 O.3     
  12 C12            2.8831     5.4488    -0.7255 C.3     
  13 C13            4.4077     5.3501    -0.8722 C.3     
  14 N14            1.5506     7.0427    -1.6785 N.am    
  15 C15            2.2303     5.9220    -1.9925 C.2     
  16 C16            2.4837     6.4435     0.3233 C.ar    
  17 C17            2.7534     6.5693     1.6674 C.ar    
  18 C18            2.2235     7.6273     2.3847 C.ar    
  19 C19            1.4228     8.5577     1.7487 C.ar    
  20 C20            1.1499     8.4364     0.4018 C.ar    
  21 C21            1.6791     7.3756    -0.3279 C.ar    
  22 O22            2.3013     5.3985    -3.0843 O.2     
  23 C23            0.7679     7.8212    -2.6416 C.3     
  24 C24           -0.6702     7.2999    -2.6701 C.3     
  25 C25           -1.5175     8.1907    -3.5816 C.3     
  26 C26           -0.6819     5.8650    -3.2022 C.3     
  27 C27           -2.1190     5.3344    -3.1967 C.3     
  28 N28           -2.9695     6.2648    -3.9515 N.am    
  29 C29           -2.9640     7.6864    -3.5804 C.3     
  30 C30           -3.7398     5.8227    -4.9653 C.2     
  31 O31           -4.5144     6.6864    -5.6484 O.3     
  32 O32           -3.7352     4.6445    -5.2627 O.2     
  33 C33           -5.3176     6.1401    -6.7276 C.3     
  34 C34           -6.2736     5.0847    -6.1679 C.3     
  35 C35           -6.1246     7.2634    -7.3818 C.3     
  36 C36           -4.4012     5.4965    -7.7701 C.3     
  37 H37           -0.9861    -0.3866     0.2574 H       
  38 H38            0.2918    -0.3625    -0.9858 H       
  39 H39            0.7389    -0.1110     2.0310 H       
  40 H40            1.0665    -1.5646     1.0521 H       
  41 H41            4.4690     1.4954     0.6122 H       
  42 H42            0.3637     3.9267    -0.6252 H       
  43 H43            4.8926     6.2455    -0.4834 H       
  44 H44            4.6861     5.1783    -1.9119 H       
  45 H45            3.3788     5.8412     2.1625 H       
  46 H46            2.4348     7.7259     3.4393 H       
  47 H47            1.0086     9.3829     2.3089 H       
  48 H48            0.5233     9.1669    -0.0881 H       
  49 H49            0.7683     8.8705    -2.3464 H       
  50 H50            1.2099     7.7226    -3.6331 H       
  51 H51           -1.0825     7.3162    -1.6612 H       
  52 H52           -1.4897     9.2169    -3.2153 H       
  53 H53           -1.1206     8.1551    -4.5961 H       
  54 H54           -0.2929     5.8513    -4.2203 H       
  55 H55           -0.0594     5.2359    -2.5659 H       
  56 H56           -2.1472     4.3509    -3.6660 H       
  57 H57           -2.4779     5.2620    -2.1701 H       
  58 H58           -3.3919     7.8059    -2.5851 H       
  59 H59           -3.5497     8.2549    -4.3029 H       
  60 H60           -6.9264     5.5432    -5.4252 H       
  61 H61           -6.8766     4.6746    -6.9780 H       
  62 H62           -5.6987     4.2844    -5.7018 H       
  63 H63           -5.4435     8.0152    -7.7805 H       
  64 H64           -6.7276     6.8532    -8.1919 H       
  65 H65           -6.7774     7.7218    -6.6391 H       
  66 H66           -3.8264     4.6963    -7.3040 H       
  67 H67           -5.0042     5.0864    -8.5802 H       
  68 H68           -3.7202     6.2484    -8.1688 H       
@<TRIPOS>BOND
   1    1    2 1
   2    1    6 1
   3    2    3 1
   4    2   37 1
   5    2   38 1
   6    3    4 1
   7    3   39 1
   8    3   40 1
   9    4    5 1
  10    5    6 ar
  11    5    7 ar
  12    6   10 ar
  13    7    8 ar
  14    7   41 1
  15    8    9 ar
  16    8   11 1
  17    9   10 ar
  18    9   12 1
  19   10   42 1
  20   11   13 1
  21   12   13 1
  22   12   15 1
  23   12   16 1
  24   13   43 1
  25   13   44 1
  26   14   15 am
  27   14   21 1
  28   14   23 1
  29   15   22 2
  30   16   17 ar
  31   16   21 ar
  32   17   18 ar
  33   17   45 1
  34   18   19 ar
  35   18   46 1
  36   19   20 ar
  37   19   47 1
  38   20   21 ar
  39   20   48 1
  40   23   24 1
  41   23   49 1
  42   23   50 1
  43   24   25 1
  44   24   26 1
  45   24   51 1
  46   25   29 1
  47   25   52 1
  48   25   53 1
  49   26   27 1
  50   26   54 1
  51   26   55 1
  52   27   28 1
  53   27   56 1
  54   27   57 1
  55   28   29 1
  56   28   30 am
  57   29   58 1
  58   29   59 1
  59   30   31 1
  60   30   32 2
  61   31   33 1
  62   33   34 1
  63   33   35 1
  64   33   36 1
  65   34   60 1
  66   34   61 1
  67   34   62 1
  68   35   63 1
  69   35   64 1
  70   35   65 1
  71   36   66 1
  72   36   67 1
  73   36   68 1

#	End of record

