#	Name: ASD01028604
#	Creating user name:	WinNT
#	Creation time:	15. 06. 2019 18:57

#	Modifying user name:	WinNT
#	Modification time:	15. 06. 2019 18:57

#	Program:	/corina/corina34_cracker 3.40 0067  02.08.2006

@<TRIPOS>MOLECULE
ASD01028604
  24   25    0    0    0
SMALL
NO_CHARGES


@<TRIPOS>ATOM
   1 N1            -0.0164     1.3618     0.0095 N.pl3   
   2 N2             0.0021    -0.0041     0.0020 N.3     
   3 C3             1.1782     2.0734     0.0019 C.ar    
   4 C4             1.1488     3.4677     0.0097 C.ar    
   5 C5             2.3403     4.1672     0.0021 C.ar    
   6 C6             3.5388     3.4406    -0.0133 C.ar    
   7 C7             3.4865     2.0485    -0.0202 C.ar    
   8 N8             2.3287     1.4184    -0.0071 N.ar    
   9 S9             5.1327     5.8904    -0.0158 S.3     
  10 N10            6.8249     5.7643    -0.0327 N.2     
  11 C11            7.1242     4.4992    -0.0424 C.2     
  12 C12            6.0999     3.5842    -0.0375 C.2     
  13 C13            4.8409     4.1421    -0.0224 C.2     
  14 C14            8.5617     4.0471    -0.0591 C.3     
  15 F15           -0.0306     4.1265     0.0241 F       
  16 H16           -0.8630     1.8353     0.0161 H       
  17 H17            0.5405    -0.3627     0.7764 H       
  18 H18           -0.9349    -0.3784     0.0090 H       
  19 H19            2.3479     5.2471     0.0075 H       
  20 H20            4.4043     1.4794    -0.0324 H       
  21 H21            6.2677     2.5174    -0.0451 H       
  22 H22            8.9184     3.9323     0.9645 H       
  23 H23            8.6362     3.0921    -0.5791 H       
  24 H24            9.1702     4.7900    -0.5747 H       
@<TRIPOS>BOND
   1    1    2 1
   2    1    3 1
   3    1   16 1
   4    2   17 1
   5    2   18 1
   6    3    4 ar
   7    3    8 ar
   8    4    5 ar
   9    4   15 1
  10    5    6 ar
  11    5   19 1
  12    6    7 ar
  13    6   13 1
  14    7    8 ar
  15    7   20 1
  16    9   10 1
  17    9   13 1
  18   10   11 2
  19   11   12 1
  20   11   14 1
  21   12   13 2
  22   12   21 1
  23   14   22 1
  24   14   23 1
  25   14   24 1

#	End of record

