#	Name: ASD01903288
#	Creating user name:	WinNT
#	Creation time:	15. 06. 2019 19:54

#	Modifying user name:	WinNT
#	Modification time:	15. 06. 2019 19:54

#	Program:	/corina/corina34_cracker 3.40 0067  02.08.2006

@<TRIPOS>MOLECULE
ASD01903288
  42   45    0    0    0
SMALL
NO_CHARGES


@<TRIPOS>ATOM
   1 C1             0.0021     1.3533    -0.0620 C.ar    
   2 C2            -0.0652     0.1012     0.5275 C.ar    
   3 C3             1.0558    -0.4129     1.1607 C.ar    
   4 C4             2.2121     0.3506     1.1810 C.ar    
   5 C5             2.2078     1.6016     0.5676 C.ar    
   6 N6             1.1127     2.0571    -0.0281 N.ar    
   7 C7             3.4356     2.4301     0.5805 C.2     
   8 O8             4.4412     2.0179     1.1246 O.2     
   9 N9             3.4376     3.6411    -0.0111 N.am    
  10 C10            4.5704     4.4590     0.0725 C.ar    
  11 C11            4.4408     5.8382    -0.0324 C.ar    
  12 C12            5.5587     6.6454     0.0497 C.ar    
  13 C13            6.8117     6.0788     0.2374 C.ar    
  14 C14            6.9419     4.6993     0.3429 C.ar    
  15 C15            5.8236     3.8922     0.2661 C.ar    
  16 N16            7.9479     6.8988     0.3150 N.am    
  17 C17            8.4371     7.4155     1.4566 C.2     
  18 C18            9.6345     8.2200     1.1341 C.ar    
  19 C19            9.7958     8.1282    -0.2635 C.ar    
  20 C20            8.6945     7.2667    -0.7418 C.2     
  21 O21            7.9723     7.2495     2.5663 O.2     
  22 O22            8.4925     6.9503    -1.8969 O.2     
  23 C23           11.5777     9.6192     1.2522 C.ar    
  24 C24           11.7356     9.5290    -0.1187 C.ar    
  25 C25           10.8483     8.7855    -0.8806 C.ar    
  26 C26           10.5290     8.9667     1.8834 C.ar    
  27 C27           10.3631     9.0700     3.3777 C.3     
  28 Cl28           8.5093     3.9907     0.5772 Cl      
  29 I29           12.9316    10.7490     2.3834 I       
  30 I30            2.5496     6.6939    -0.3158 I       
  31 H31           -0.8680     1.7549    -0.5600 H       
  32 H32           -0.9821    -0.4685     0.4944 H       
  33 H33            1.0285    -1.3863     1.6279 H       
  34 H34            3.1038    -0.0186     1.6657 H       
  35 H35            2.6541     3.9458    -0.4949 H       
  36 H36            5.4578     7.7175    -0.0326 H       
  37 H37            5.9246     2.8201     0.3481 H       
  38 H38           12.5558    10.0418    -0.5990 H       
  39 H39           10.9767     8.7183    -1.9508 H       
  40 H40           10.9142     8.2633     3.8611 H       
  41 H41           10.7490    10.0300     3.7206 H       
  42 H42            9.3062     8.9914     3.6322 H       
@<TRIPOS>BOND
   1    1    2 ar
   2    1    6 ar
   3    1   31 1
   4    2    3 ar
   5    2   32 1
   6    3    4 ar
   7    3   33 1
   8    4    5 ar
   9    4   34 1
  10    5    6 ar
  11    5    7 1
  12    7    8 2
  13    7    9 am
  14    9   10 1
  15    9   35 1
  16   10   11 ar
  17   10   15 ar
  18   11   12 ar
  19   11   30 1
  20   12   13 ar
  21   12   36 1
  22   13   14 ar
  23   13   16 1
  24   14   15 ar
  25   14   28 1
  26   15   37 1
  27   16   17 am
  28   16   20 am
  29   17   18 1
  30   17   21 2
  31   18   19 ar
  32   18   26 ar
  33   19   20 1
  34   19   25 ar
  35   20   22 2
  36   23   24 ar
  37   23   29 1
  38   23   26 ar
  39   24   25 ar
  40   24   38 1
  41   25   39 1
  42   26   27 1
  43   27   40 1
  44   27   41 1
  45   27   42 1

#	End of record

