#	Name: ASD01148573
#	Creating user name:	WinNT
#	Creation time:	15. 06. 2019 19:02

#	Modifying user name:	WinNT
#	Modification time:	15. 06. 2019 19:02

#	Program:	/corina/corina34_cracker 3.40 0067  02.08.2006

@<TRIPOS>MOLECULE
ASD01148573
  61   65    0    0    0
SMALL
NO_CHARGES


@<TRIPOS>ATOM
   1 C1            -0.0654     0.5068     0.5967 C.ar    
   2 C2            -0.3266    -0.8526     0.6111 C.ar    
   3 C3            -1.6258    -1.3084     0.4664 C.ar    
   4 C4            -2.6615    -0.4051     0.3076 C.ar    
   5 C5            -2.3995     0.9520     0.2930 C.ar    
   6 C6            -1.1034     1.4085     0.4436 C.ar    
   7 C7            -3.5284     1.9350     0.1190 C.3     
   8 O8            -4.7490     1.4260     0.6939 O.3     
   9 C9            -3.2888     3.2088     0.9642 C.3     
  10 C10           -4.0377     2.8995     2.2465 C.2     
  11 N11           -4.8250     1.8991     2.0241 N.2     
  12 C12           -3.8921     3.6156     3.5254 C.ar    
  13 C13           -4.6789     3.2114     4.6880 C.ar    
  14 C14           -3.0020     4.6752     3.6352 C.ar    
  15 C15           -2.8447     5.3651     4.8239 C.ar    
  16 C16           -3.5702     5.0274     5.9586 C.ar    
  17 C17           -4.5183     3.9169     5.9040 C.ar    
  18 C18           -3.3811     5.7800     7.2109 C.2     
  19 O19           -2.8542     5.2458     8.1674 O.2     
  20 N20           -3.7922     7.0607     7.2961 N.am    
  21 C21           -5.2708     3.5410     7.0236 C.ar    
  22 C22           -5.5845     2.1447     4.6244 C.ar    
  23 C23           -3.7230     2.2852    -1.3576 C.3     
  24 F24           -4.0070     1.1210    -2.0795 F       
  25 F25           -4.7862     3.1853    -1.4872 F       
  26 F26           -2.5539     2.8696    -1.8563 F       
  27 Cl27          -1.9550    -3.0128     0.4836 Cl      
  28 Cl28           0.9741    -1.9850     0.8098 Cl      
  29 Cl29           1.5631     1.0802     0.7780 Cl      
  30 C30           -3.6907     7.7795     8.5686 C.3     
  31 C31           -2.3526     8.4678     8.6514 C.ar    
  32 N32           -1.3021     7.8002     9.0863 N.ar    
  33 C33           -4.2968     7.6801     6.2107 C.2     
  34 C34           -0.1119     8.3613     9.1756 C.ar    
  35 C35            0.0761     9.6814     8.8130 C.ar    
  36 C36           -1.0055    10.4159     8.3508 C.ar    
  37 C37           -2.2396     9.7902     8.2651 C.ar    
  38 O38           -4.2987     7.1155     5.1352 O.2     
  39 O39           -4.7985     8.9245     6.3184 O.3     
  40 C40           -5.3251     9.5299     5.1082 C.3     
  41 C41           -6.2984     1.8006     5.7337 C.ar    
  42 C42           -6.1440     2.4981     6.9288 C.ar    
  43 H43           -3.6751    -0.7604     0.1947 H       
  44 H44           -0.8999     2.4691     0.4324 H       
  45 H45           -2.2258     3.3483     1.1609 H       
  46 H46           -3.7104     4.0850     0.4716 H       
  47 H47           -2.4195     4.9671     2.7739 H       
  48 H48           -2.1419     6.1839     4.8705 H       
  49 H49           -5.1600     4.0736     7.9565 H       
  50 H50           -5.7166     1.5984     3.7022 H       
  51 H51           -4.4859     8.5224     8.6308 H       
  52 H52           -3.7877     7.0735     9.3934 H       
  53 H53            0.7254     7.7825     9.5365 H       
  54 H54            1.0530    10.1355     8.8890 H       
  55 H55           -0.8884    11.4495     8.0606 H       
  56 H56           -3.1037    10.3316     7.9091 H       
  57 H57           -4.5339     9.5968     4.3615 H       
  58 H58           -6.1397     8.9182     4.7206 H       
  59 H59           -5.6969    10.5293     5.3341 H       
  60 H60           -6.9963     0.9780     5.6837 H       
  61 H61           -6.7236     2.2087     7.7929 H       
@<TRIPOS>BOND
   1    1    2 ar
   2    1   29 1
   3    1    6 ar
   4    2    3 ar
   5    2   28 1
   6    3    4 ar
   7    3   27 1
   8    4    5 ar
   9    4   43 1
  10    5    6 ar
  11    5    7 1
  12    6   44 1
  13    7    8 1
  14    7    9 1
  15    7   23 1
  16    8   11 1
  17    9   10 1
  18    9   45 1
  19    9   46 1
  20   10   11 2
  21   10   12 1
  22   12   13 ar
  23   12   14 ar
  24   13   22 ar
  25   13   17 ar
  26   14   15 ar
  27   14   47 1
  28   15   16 ar
  29   15   48 1
  30   16   17 ar
  31   16   18 1
  32   17   21 ar
  33   18   19 2
  34   18   20 am
  35   20   30 1
  36   20   33 am
  37   21   42 ar
  38   21   49 1
  39   22   41 ar
  40   22   50 1
  41   23   24 1
  42   23   25 1
  43   23   26 1
  44   30   31 1
  45   30   51 1
  46   30   52 1
  47   31   32 ar
  48   31   37 ar
  49   32   34 ar
  50   33   38 2
  51   33   39 1
  52   34   35 ar
  53   34   53 1
  54   35   36 ar
  55   35   54 1
  56   36   37 ar
  57   36   55 1
  58   37   56 1
  59   39   40 1
  60   40   57 1
  61   40   58 1
  62   40   59 1
  63   41   42 ar
  64   41   60 1
  65   42   61 1

#	End of record

