#	Name: ASD01815900
#	Creating user name:	WinNT
#	Creation time:	15. 06. 2019 19:34

#	Modifying user name:	WinNT
#	Modification time:	15. 06. 2019 19:34

#	Program:	/corina/corina34_cracker 3.40 0067  02.08.2006

@<TRIPOS>MOLECULE
ASD01815900
  53   58    0    0    0
SMALL
NO_CHARGES


@<TRIPOS>ATOM
   1 C1            -0.0755     1.3135     0.1764 C.ar    
   2 C2            -0.0315    -0.0710     0.1644 C.ar    
   3 C3             1.1769    -0.7363     0.0950 C.ar    
   4 C4             2.3673    -0.0165     0.0367 C.ar    
   5 C5             2.3197     1.3868     0.0490 C.ar    
   6 C6             1.0945     2.0466     0.1187 C.ar    
   7 N7             3.5823    -0.6779    -0.0320 N.pl3   
   8 C8             4.7607    -0.0376    -0.0902 C.2     
   9 C9             4.8385     1.3331    -0.0849 C.2     
  10 C10            3.5924     2.1299    -0.0136 C.2     
  11 C11            5.9163     2.3159    -0.1358 C.2     
  12 N12            5.3224     3.5282    -0.0965 N.am    
  13 N13            3.9344     3.3862    -0.0237 N.2     
  14 C14            5.9990     4.7493    -0.1242 C.ar    
  15 O15            7.1132     2.0881    -0.2005 O.2     
  16 C16            3.5814    -2.1429    -0.0411 C.3     
  17 C17            3.7086    -2.6541     1.3708 C.ar    
  18 C18            2.5840    -2.7680     2.1674 C.ar    
  19 C19            2.6975    -3.2357     3.4620 C.ar    
  20 C20            3.9422    -3.5922     3.9632 C.ar    
  21 C21            5.0694    -3.4772     3.1608 C.ar    
  22 C22            4.9489    -3.0137     1.8653 C.ar    
  23 N23            4.0607    -4.0669     5.2769 N.pl3   
  24 C24            5.2070    -4.4464     5.8856 C.2     
  25 F25            1.0505     3.3969     0.1304 F       
  26 F26            1.2039    -2.0870     0.0842 F       
  27 C27            4.8953    -4.8384     7.1427 C.2     
  28 C28            3.5135    -4.6942     7.3088 C.2     
  29 N29            3.0134    -4.2263     6.1935 N.2     
  30 C30            5.7979     5.7000     0.8735 C.ar    
  31 C31            6.8981     5.0458    -1.1489 C.ar    
  32 N32            7.3267     7.1416    -0.1816 N.ar    
  33 C33            6.4876     6.8971     0.8093 C.ar    
  34 C34            7.5468     6.2622    -1.1415 C.ar    
  35 F35            6.2967     7.8298     1.7679 F       
  36 C36            4.8420     5.4284     2.0065 C.3     
  37 H37           -1.0273     1.8214     0.2264 H       
  38 H38           -0.9510    -0.6357     0.2101 H       
  39 H39            5.6714    -0.6158    -0.1423 H       
  40 H40            2.6486    -2.5030    -0.4752 H       
  41 H41            4.4214    -2.5031    -0.6350 H       
  42 H42            1.6160    -2.4905     1.7769 H       
  43 H43            1.8189    -3.3238     4.0839 H       
  44 H44            6.0391    -3.7534     3.5481 H       
  45 H45            5.8253    -2.9240     1.2407 H       
  46 H46            6.1939    -4.4386     5.4471 H       
  47 H47            5.5904    -5.1990     7.8865 H       
  48 H48            2.9561    -4.9249     8.2046 H       
  49 H49            7.0838     4.3316    -1.9375 H       
  50 H50            8.2442     6.4990    -1.9314 H       
  51 H51            5.3775     4.9506     2.8269 H       
  52 H52            4.4117     6.3683     2.3520 H       
  53 H53            4.0456     4.7698     1.6600 H       
@<TRIPOS>BOND
   1    1    2 ar
   2    1    6 ar
   3    1   37 1
   4    2    3 ar
   5    2   38 1
   6    3    4 ar
   7    3   26 1
   8    4    5 ar
   9    4    7 1
  10    5    6 ar
  11    5   10 1
  12    6   25 1
  13    7    8 1
  14    7   16 1
  15    8    9 2
  16    8   39 1
  17    9   10 1
  18    9   11 1
  19   10   13 2
  20   11   12 am
  21   11   15 2
  22   12   13 1
  23   12   14 1
  24   14   30 ar
  25   14   31 ar
  26   16   17 1
  27   16   40 1
  28   16   41 1
  29   17   18 ar
  30   17   22 ar
  31   18   19 ar
  32   18   42 1
  33   19   20 ar
  34   19   43 1
  35   20   21 ar
  36   20   23 1
  37   21   22 ar
  38   21   44 1
  39   22   45 1
  40   23   24 1
  41   23   29 1
  42   24   27 2
  43   24   46 1
  44   27   28 1
  45   27   47 1
  46   28   29 2
  47   28   48 1
  48   30   36 1
  49   30   33 ar
  50   31   34 ar
  51   31   49 1
  52   32   33 ar
  53   32   34 ar
  54   33   35 1
  55   34   50 1
  56   36   51 1
  57   36   52 1
  58   36   53 1

#	End of record

