#	Name: ASD01940579
#	Creating user name:	WinNT
#	Creation time:	15. 06. 2019 20:12

#	Modifying user name:	WinNT
#	Modification time:	15. 06. 2019 20:12

#	Program:	/corina/corina34_cracker 3.40 0067  02.08.2006

@<TRIPOS>MOLECULE
ASD01940579
  43   45    0    0    0
SMALL
NO_CHARGES


@<TRIPOS>ATOM
   1 C1             0.1753     2.5189     2.6749 C.ar    
   2 C2            -0.0489     1.2186     3.1065 C.ar    
   3 C3            -0.1536     0.1892     2.1794 C.ar    
   4 C4            -0.0347     0.4593     0.8296 C.ar    
   5 C5             0.1883     1.7528     0.3982 C.ar    
   6 C6             0.2938     2.7856     1.3200 C.ar    
   7 N7            -0.1685     0.9456     4.4710 N.am    
   8 S8            -1.3791    -0.0453     5.0142 S.o2    
   9 *9            -1.0652    -1.6947     4.3382 Du      
  10 O10           -1.2112    -0.1497     6.4213 O.2     
  11 O11           -2.5780     0.4159     4.4066 O.2     
  12 O12            0.5128     4.0572     0.8940 O.3     
  13 C13            1.7975     4.4747     0.7691 C.ar    
  14 C14            2.8481     3.5857     0.9461 C.ar    
  15 N15            4.0993     3.9808     0.8276 N.ar    
  16 C16            4.4196     5.2246     0.5378 C.ar    
  17 C17            3.4371     6.1885     0.3417 C.ar    
  18 C18            2.0856     5.8129     0.4526 C.ar    
  19 N19            3.7837     7.4988     0.0363 N.pl3   
  20 C20            4.7421     8.1664     0.8062 C.ar    
  21 C21            5.2040     7.5999     1.9867 C.ar    
  22 C22            6.1508     8.2611     2.7448 C.ar    
  23 C23            6.6393     9.4870     2.3299 C.ar    
  24 C24            6.1819    10.0557     1.1548 C.ar    
  25 C25            5.2387     9.3965     0.3879 C.ar    
  26 F26            4.7962     9.9489    -0.7629 F       
  27 I27            8.0746    10.4851     3.4844 I       
  28 C28            1.0050     6.7948     0.2483 C.2     
  29 N29            0.4866     6.9801    -0.9819 N.am    
  30 O30            0.5815     7.4376     1.1896 O.2     
  31 H31            0.2526     3.3217     3.3932 H       
  32 H32           -0.3276    -0.8228     2.5139 H       
  33 H33           -0.1160    -0.3422     0.1104 H       
  34 H34            0.2808     1.9607    -0.6576 H       
  35 H35            0.4575     1.3364     5.1006 H       
  36 H36            2.6369     2.5539     1.1852 H       
  37 H37            5.4603     5.5001     0.4516 H       
  38 H38            3.3611     7.9507    -0.7107 H       
  39 H39            4.8231     6.6432     2.3123 H       
  40 H40            6.5100     7.8203     3.6630 H       
  41 H41            6.5646    11.0133     0.8339 H       
  42 H42            0.8245     6.4674    -1.7329 H       
  43 H43           -0.2243     7.6262    -1.1164 H       
@<TRIPOS>BOND
   1    1    2 ar
   2    1    6 ar
   3    1   31 1
   4    2    3 ar
   5    2    7 1
   6    3    4 ar
   7    3   32 1
   8    4    5 ar
   9    4   33 1
  10    5    6 ar
  11    5   34 1
  12    6   12 1
  13    7    8 am
  14    7   35 1
  15    8    9 1
  16    8   10 2
  17    8   11 2
  18   12   13 1
  19   13   14 ar
  20   13   18 ar
  21   14   15 ar
  22   14   36 1
  23   15   16 ar
  24   16   17 ar
  25   16   37 1
  26   17   18 ar
  27   17   19 1
  28   18   28 1
  29   19   20 1
  30   19   38 1
  31   20   21 ar
  32   20   25 ar
  33   21   22 ar
  34   21   39 1
  35   22   23 ar
  36   22   40 1
  37   23   24 ar
  38   23   27 1
  39   24   25 ar
  40   24   41 1
  41   25   26 1
  42   28   29 am
  43   28   30 2
  44   29   42 1
  45   29   43 1

#	End of record

