#	Name: ASD02500403
#	Creating user name:	WinNT
#	Creation time:	15. 06. 2019 20:22

#	Modifying user name:	WinNT
#	Modification time:	15. 06. 2019 20:22

#	Program:	/corina/corina34_cracker 3.40 0067  02.08.2006

@<TRIPOS>MOLECULE
ASD02500403
  55   58    0    0    0
SMALL
NO_CHARGES


@<TRIPOS>ATOM
   1 C1            -3.2980     1.9462     1.0960 C.ar    
   2 C2            -4.4724     2.6447     0.8554 C.ar    
   3 C3            -5.5936     2.4021     1.6350 C.ar    
   4 C4            -5.5391     1.4656     2.6495 C.ar    
   5 C5            -4.3670     0.7705     2.8881 C.ar    
   6 C6            -3.2474     1.0109     2.1111 C.ar    
   7 S7            -1.8741     2.2470     0.1027 S.o2    
   8 O8            -1.7174     3.6581     0.0428 O.2     
   9 O9            -0.8607     1.3720     0.5787 O.2     
  10 N10           -2.2357     1.7510    -1.4353 N.am    
  11 C11           -2.4780     0.4063    -1.6933 C.ar    
  12 C12           -3.5683     0.0345    -2.4751 C.ar    
  13 C13           -3.8108    -1.2955    -2.7321 C.ar    
  14 C14           -2.9610    -2.2736    -2.2073 C.ar    
  15 C15           -1.8671    -1.8970    -1.4226 C.ar    
  16 C16           -1.6267    -0.5650    -1.1738 C.ar    
  17 C17           -3.2184    -3.7002    -2.4805 C.2     
  18 O18           -2.2882    -4.4754    -2.5918 O.2     
  19 N19           -4.4846    -4.1444    -2.6068 N.am    
  20 C20           -4.7613    -5.5354    -2.9962 C.3     
  21 C21           -5.7492    -6.1353    -1.9900 C.3     
  22 N22           -6.9324    -5.2699    -1.8948 N.3     
  23 C23           -6.5801    -3.9408    -1.3777 C.3     
  24 C24           -5.6263    -3.2526    -2.3529 C.3     
  25 C25           -7.9166    -5.8587    -1.1200 C.ar    
  26 N26           -9.0584    -5.2153    -0.9262 N.ar    
  27 C27          -10.0194    -5.7499    -0.1911 C.ar    
  28 C28           -9.8202    -6.9976     0.3786 C.ar    
  29 C29           -8.6140    -7.6429     0.1555 C.ar    
  30 N30           -7.6965    -7.0548    -0.5942 N.ar    
  31 O31           -4.5239     3.5659    -0.1427 O.3     
  32 C32           -5.7942     4.1639    -0.4086 C.3     
  33 Cl33          -4.3007    -0.4048     4.1640 Cl      
  34 H34           -6.5085     2.9451     1.4495 H       
  35 H35           -6.4119     1.2764     3.2567 H       
  36 H36           -2.3334     0.4669     2.2987 H       
  37 H37           -2.2784     2.3985    -2.1563 H       
  38 H38           -4.2247     0.7906    -2.8800 H       
  39 H39           -4.6570    -1.5833    -3.3384 H       
  40 H40           -1.2090    -2.6503    -1.0154 H       
  41 H41           -0.7790    -0.2732    -0.5716 H       
  42 H42           -5.1978    -5.5562    -3.9948 H       
  43 H43           -3.8348    -6.1096    -2.9866 H       
  44 H44           -6.0507    -7.1281    -2.3240 H       
  45 H45           -5.2729    -6.2091    -1.0124 H       
  46 H46           -7.4843    -3.3420    -1.2676 H       
  47 H47           -6.0922    -4.0451    -0.4086 H       
  48 H48           -5.2714    -2.3182    -1.9180 H       
  49 H49           -6.1476    -3.0497    -3.2884 H       
  50 H50          -10.9479    -5.2204    -0.0364 H       
  51 H51          -10.5880    -7.4570     0.9834 H       
  52 H52           -8.4270    -8.6159     0.5853 H       
  53 H53           -6.5301     3.3833    -0.6014 H       
  54 H54           -6.1065     4.7525     0.4541 H       
  55 H55           -5.7151     4.8122    -1.2813 H       
@<TRIPOS>BOND
   1    1    2 ar
   2    1    6 ar
   3    1    7 1
   4    2    3 ar
   5    2   31 1
   6    3    4 ar
   7    3   34 1
   8    4    5 ar
   9    4   35 1
  10    5    6 ar
  11    5   33 1
  12    6   36 1
  13    7    8 2
  14    7    9 2
  15    7   10 am
  16   10   11 1
  17   10   37 1
  18   11   12 ar
  19   11   16 ar
  20   12   13 ar
  21   12   38 1
  22   13   14 ar
  23   13   39 1
  24   14   15 ar
  25   14   17 1
  26   15   16 ar
  27   15   40 1
  28   16   41 1
  29   17   18 2
  30   17   19 am
  31   19   20 1
  32   19   24 1
  33   20   21 1
  34   20   42 1
  35   20   43 1
  36   21   22 1
  37   21   44 1
  38   21   45 1
  39   22   23 1
  40   22   25 1
  41   23   24 1
  42   23   46 1
  43   23   47 1
  44   24   48 1
  45   24   49 1
  46   25   26 ar
  47   25   30 ar
  48   26   27 ar
  49   27   28 ar
  50   27   50 1
  51   28   29 ar
  52   28   51 1
  53   29   30 ar
  54   29   52 1
  55   31   32 1
  56   32   53 1
  57   32   54 1
  58   32   55 1

#	End of record

