#	Name: ASD02508386
#	Creating user name:	WinNT
#	Creation time:	15. 06. 2019 20:24

#	Modifying user name:	WinNT
#	Modification time:	15. 06. 2019 20:24

#	Program:	/corina/corina34_cracker 3.40 0067  02.08.2006

@<TRIPOS>MOLECULE
ASD02508386
  43   45    0    0    0
SMALL
NO_CHARGES


@<TRIPOS>ATOM
   1 C1            -0.0180     1.3964    -0.1077 C.2     
   2 C2             0.0030     0.0053     0.1195 C.2     
   3 C3             1.2947    -0.3770     0.1726 C.2     
   4 N4             2.0750     0.7291    -0.0138 N.pl3   
   5 C5             1.2616     1.8136    -0.1852 C.2     
   6 C6             3.4729     0.7481    -0.0267 C.ar    
   7 C7             4.1564     1.6788     0.7484 C.ar    
   8 N8             4.1333    -0.1229    -0.7717 N.ar    
   9 C9             5.4518    -0.1398    -0.8126 C.ar    
  10 C10            6.1952     0.7586    -0.0728 C.ar    
  11 C11            5.5412     1.6860     0.7264 C.ar    
  12 S12            1.8763    -2.0191     0.4373 S.o2    
  13 O13            1.8547    -2.6616    -0.8299 O.2     
  14 O14            3.0492    -1.9062     1.2316 O.2     
  15 N15            0.7504    -2.7929     1.3733 N.am    
  16 C16           -0.5326    -3.0259     0.8729 C.ar    
  17 C17           -0.6988    -3.5137    -0.4169 C.ar    
  18 C18           -2.9124    -3.0074     1.1686 C.ar    
  19 C19           -1.6454    -2.7756     1.6662 C.ar    
  20 C20           -1.9690    -3.7434    -0.9084 C.ar    
  21 C21           -3.0744    -3.4882    -0.1180 C.ar    
  22 C22           -4.4588    -3.7401    -0.6577 C.3     
  23 Cl23           3.2859     2.8161     1.7294 Cl      
  24 C24           -4.1199    -2.7366     2.0286 C.3     
  25 C25            7.7009     0.7287    -0.1283 C.3     
  26 F26            8.1156    -0.2902    -0.9926 F       
  27 F27            8.1748     1.9590    -0.5963 F       
  28 F28            8.2101     0.4896     1.1527 F       
  29 H29           -0.8983     2.0143    -0.2064 H       
  30 H30           -0.8582    -0.6369     0.2307 H       
  31 H31            1.5875     2.8293    -0.3539 H       
  32 H32            5.9565    -0.8661    -1.4324 H       
  33 H33            6.0992     2.3994     1.3146 H       
  34 H34            0.9820    -3.0844     2.2690 H       
  35 H35            0.1642    -3.7129    -1.0349 H       
  36 H36           -1.5195    -2.4004     2.6711 H       
  37 H37           -2.0989    -4.1224    -1.9113 H       
  38 H38           -4.7576    -4.7629    -0.4284 H       
  39 H39           -5.1604    -3.0446    -0.1971 H       
  40 H40           -4.4596    -3.5948    -1.7380 H       
  41 H41           -4.4479    -1.7077     1.8808 H       
  42 H42           -4.9241    -3.4178     1.7505 H       
  43 H43           -3.8612    -2.8885     3.0765 H       
@<TRIPOS>BOND
   1    1    2 1
   2    1    5 2
   3    1   29 1
   4    2    3 2
   5    2   30 1
   6    3    4 1
   7    3   12 1
   8    4    5 1
   9    4    6 1
  10    5   31 1
  11    6    7 ar
  12    6    8 ar
  13    7   23 1
  14    7   11 ar
  15    8    9 ar
  16    9   10 ar
  17    9   32 1
  18   10   11 ar
  19   10   25 1
  20   11   33 1
  21   12   13 2
  22   12   14 2
  23   12   15 am
  24   15   16 1
  25   15   34 1
  26   16   17 ar
  27   16   19 ar
  28   17   20 ar
  29   17   35 1
  30   18   19 ar
  31   18   24 1
  32   18   21 ar
  33   19   36 1
  34   20   21 ar
  35   20   37 1
  36   21   22 1
  37   22   38 1
  38   22   39 1
  39   22   40 1
  40   24   41 1
  41   24   42 1
  42   24   43 1
  43   25   26 1
  44   25   27 1
  45   25   28 1

#	End of record

