#	Name: ASD01813266
#	Creating user name:	WinNT
#	Creation time:	15. 06. 2019 19:30

#	Modifying user name:	WinNT
#	Modification time:	15. 06. 2019 19:30

#	Program:	/corina/corina34_cracker 3.40 0067  02.08.2006

@<TRIPOS>MOLECULE
ASD01813266
  57   61    0    0    0
SMALL
NO_CHARGES


@<TRIPOS>ATOM
   1 C1            -6.0488   -13.3593    -5.7322 C.3     
   2 N2            -5.0981   -12.3146    -6.1209 N.pl3   
   3 C3            -4.3732   -11.5521    -5.2777 C.2     
   4 C4            -3.6151   -10.7067    -6.0340 C.2     
   5 C5            -3.8997   -10.9762    -7.3868 C.2     
   6 N6            -4.7811   -11.9398    -7.4321 N.2     
   7 C7            -2.6631    -9.6879    -5.5237 C.ar    
   8 C8            -2.4750    -9.5324    -4.1524 C.ar    
   9 C9            -1.5886    -8.5843    -3.6818 C.ar    
  10 C10           -0.8875    -7.7885    -4.5687 C.ar    
  11 C11            0.0786    -6.7554    -4.0489 C.3     
  12 N12            1.4312    -7.3178    -4.0295 N.pl3   
  13 C13            2.3409    -7.1779    -5.0220 C.2     
  14 C14            3.4953    -7.8231    -4.6849 C.2     
  15 C15            4.7214    -7.9085    -5.4900 C.2     
  16 O16            5.6852    -8.5192    -5.0677 O.2     
  17 N17            4.7784    -7.3103    -6.6964 N.am    
  18 C18            6.0009    -7.3955    -7.4992 C.3     
  19 H19            6.8701    -7.3837    -6.8416 H       
  20 C20            5.9908    -8.6937    -8.3105 C.3     
  21 O21            7.1561    -8.7471    -9.1360 O.3     
  22 C22            7.2476    -7.6831   -10.0857 C.3     
  23 C23            7.3082    -6.3443    -9.3457 C.3     
  24 C24            6.0680    -6.2025    -8.4577 C.3     
  25 H25            5.1742    -6.1851    -9.0813 H       
  26 O26            6.1526    -4.9899    -7.7064 O.3     
  27 C27            3.2713    -8.4170    -3.3545 C.ar    
  28 N28            4.0206    -9.1445    -2.5364 N.ar    
  29 C29            3.5641    -9.5577    -1.3726 C.ar    
  30 C30            2.2798    -9.2485    -0.9547 C.ar    
  31 C31            1.4578    -8.4920    -1.7713 C.ar    
  32 C32            1.9606    -8.0597    -2.9950 C.ar    
  33 C33           -1.0701    -7.9382    -5.9341 C.ar    
  34 F34           -0.3824    -7.1580    -6.7964 F       
  35 C35           -1.9511    -8.8887    -6.4149 C.ar    
  36 H36           -5.5275   -14.3132    -5.6518 H       
  37 H37           -6.4936   -13.1061    -4.7699 H       
  38 H38           -6.8325   -13.4360    -6.4858 H       
  39 H39           -4.3897   -11.6015    -4.1990 H       
  40 H40           -3.4623   -10.4764    -8.2385 H       
  41 H41           -3.0223   -10.1526    -3.4579 H       
  42 H42           -1.4429    -8.4638    -2.6185 H       
  43 H43            0.0584    -5.8800    -4.6980 H       
  44 H44           -0.2088    -6.4652    -3.0383 H       
  45 H45            2.1775    -6.6373    -5.9426 H       
  46 H46            4.0100    -6.8234    -7.0332 H       
  47 H47            5.9868    -9.5465    -7.6317 H       
  48 H48            5.0996    -8.7237    -8.9374 H       
  49 H49            8.1490    -7.8080   -10.6857 H       
  50 H50            6.3728    -7.6999   -10.7357 H       
  51 H51            8.2044    -6.3108    -8.7261 H       
  52 H52            7.3335    -5.5292   -10.0689 H       
  53 H53            6.1984    -4.1922    -8.2511 H       
  54 H54            4.2022   -10.1486    -0.7323 H       
  55 H55            1.9221    -9.5963     0.0032 H       
  56 H56            0.4532    -8.2400    -1.4651 H       
  57 H57           -2.0901    -9.0085    -7.4792 H       
@<TRIPOS>BOND
   1    1    2 1
   2    1   36 1
   3    1   37 1
   4    1   38 1
   5    2    6 1
   6    2    3 1
   7    3    4 2
   8    3   39 1
   9    4    5 1
  10    4    7 1
  11    5    6 2
  12    5   40 1
  13    7   35 ar
  14    7    8 ar
  15    8    9 ar
  16    8   41 1
  17    9   10 ar
  18    9   42 1
  19   10   11 1
  20   10   33 ar
  21   11   12 1
  22   11   43 1
  23   11   44 1
  24   12   32 1
  25   12   13 1
  26   13   14 2
  27   13   45 1
  28   14   15 1
  29   14   27 1
  30   15   16 2
  31   15   17 am
  32   17   18 1
  33   17   46 1
  34   18   19 1
  35   18   24 1
  36   18   20 1
  37   20   21 1
  38   20   47 1
  39   20   48 1
  40   21   22 1
  41   22   23 1
  42   22   49 1
  43   22   50 1
  44   23   24 1
  45   23   51 1
  46   23   52 1
  47   24   25 1
  48   24   26 1
  49   26   53 1
  50   27   32 ar
  51   27   28 ar
  52   28   29 ar
  53   29   30 ar
  54   29   54 1
  55   30   31 ar
  56   30   55 1
  57   31   32 ar
  58   31   56 1
  59   33   34 1
  60   33   35 ar
  61   35   57 1

#	End of record

