#	Name: ASD01883341
#	Creating user name:	WinNT
#	Creation time:	15. 06. 2019 19:46

#	Modifying user name:	WinNT
#	Modification time:	15. 06. 2019 19:46

#	Program:	/corina/corina34_cracker 3.40 0067  02.08.2006

@<TRIPOS>MOLECULE
ASD01883341
  45   48    0    0    0
SMALL
NO_CHARGES


@<TRIPOS>ATOM
   1 N1             0.0016     1.1877     0.9560 N.am    
   2 C2            -1.1377     1.8437     1.2444 C.2     
   3 C3            -2.3874     1.2585     0.9316 C.2     
   4 C4            -2.4060    -0.0072     0.3209 C.2     
   5 C5            -1.1813    -0.6429     0.0445 C.2     
   6 C6            -0.0179    -0.0337     0.3609 C.2     
   7 O7            -1.0930     2.9408     1.7748 O.2     
   8 C8            -3.6093     1.9422     1.2318 C.1     
   9 N9            -4.5786     2.4846     1.4700 N.1     
  10 N10           -3.5999    -0.6140    -0.0003 N.pl3   
  11 C11            1.2886     1.8055     1.2848 C.3     
  12 C12            1.7051     1.3947     2.6985 C.3     
  13 C13            3.0835     1.8440     3.1875 C.3     
  14 C14            1.8210     2.5000     3.7501 C.3     
  15 C15           -4.8010     0.0923     0.1298 C.ar    
  16 C16           -5.0789     1.1534    -0.7222 C.ar    
  17 C17           -6.2643     1.8494    -0.5936 C.ar    
  18 C18           -7.1779     1.4891     0.3865 C.ar    
  19 C19           -6.9009     0.4295     1.2383 C.ar    
  20 C20           -5.7184    -0.2711     1.1072 C.ar    
  21 O21           -8.3451     2.1750     0.5126 O.3     
  22 C22           -9.2532     2.0773    -0.4913 C.ar    
  23 C23           -9.0486     1.2039    -1.5570 C.ar    
  24 C24           -9.9957     1.1335    -2.5577 C.ar    
  25 N25          -11.0829     1.8802    -2.5137 N.ar    
  26 C26          -11.3122     2.7191    -1.5212 C.ar    
  27 C27          -10.4163     2.8436    -0.4794 C.ar    
  28 H28           -1.1714    -1.6160    -0.4240 H       
  29 H29            0.9158    -0.5311     0.1436 H       
  30 H30           -3.6082    -1.5309    -0.3167 H       
  31 H31            2.0437     1.4731     0.5725 H       
  32 H32            1.1943     2.8903     1.2346 H       
  33 H33            1.3466     0.4201     3.0297 H       
  34 H34            3.6317     1.1651     3.8407 H       
  35 H35            3.6936     2.4322     2.5020 H       
  36 H36            1.6005     3.5198     3.4347 H       
  37 H37            1.5386     2.2527     4.7734 H       
  38 H38           -4.3677     1.4342    -1.4850 H       
  39 H39           -6.4804     2.6748    -1.2558 H       
  40 H40           -7.6124     0.1499     2.0012 H       
  41 H41           -5.5028    -1.0959     1.7704 H       
  42 H42           -8.1607     0.5906    -1.5995 H       
  43 H43           -9.8453     0.4591    -3.3878 H       
  44 H44          -12.2145     3.3126    -1.5223 H       
  45 H45          -10.6101     3.5319     0.3300 H       
@<TRIPOS>BOND
   1    1    2 am
   2    1   11 1
   3    1    6 1
   4    2    3 1
   5    2    7 2
   6    3    4 2
   7    3    8 1
   8    4    5 1
   9    4   10 1
  10    5    6 2
  11    5   28 1
  12    6   29 1
  13    8    9 3
  14   10   15 1
  15   10   30 1
  16   11   12 1
  17   11   31 1
  18   11   32 1
  19   12   13 1
  20   12   14 1
  21   12   33 1
  22   13   14 1
  23   13   34 1
  24   13   35 1
  25   14   36 1
  26   14   37 1
  27   15   16 ar
  28   15   20 ar
  29   16   17 ar
  30   16   38 1
  31   17   18 ar
  32   17   39 1
  33   18   19 ar
  34   18   21 1
  35   19   20 ar
  36   19   40 1
  37   20   41 1
  38   21   22 1
  39   22   23 ar
  40   22   27 ar
  41   23   24 ar
  42   23   42 1
  43   24   25 ar
  44   24   43 1
  45   25   26 ar
  46   26   27 ar
  47   26   44 1
  48   27   45 1

#	End of record

