#	Name: ASD01209226
#	Creating user name:	WinNT
#	Creation time:	15. 06. 2019 19:11

#	Modifying user name:	WinNT
#	Modification time:	15. 06. 2019 19:11

#	Program:	/corina/corina34_cracker 3.40 0067  02.08.2006

@<TRIPOS>MOLECULE
ASD01209226
  60   63    0    0    0
SMALL
NO_CHARGES


@<TRIPOS>ATOM
   1 O1             0.4709     4.0237     0.8004 O.3     
   2 O2             2.3198     5.5675     1.8543 O.3     
   3 C3             1.5747     7.2220    -8.8082 C.ar    
   4 C4             0.7534     6.8841    -9.8740 C.ar    
   5 C5            -0.5064     6.3510    -9.6423 C.ar    
   6 C6            -0.9489     6.1531    -8.3448 C.ar    
   7 C7            -0.1260     6.4916    -7.2699 C.ar    
   8 C8             1.1421     7.0230    -7.5076 C.ar    
   9 O9            -1.3072     6.0221   -10.6900 O.3     
  10 C10           -0.5943     6.2826    -5.8835 C.2     
  11 N11            0.2021     6.6102    -4.8467 N.am    
  12 O12           -1.6976     5.8153    -5.6785 O.2     
  13 C13           -0.2379     6.4138    -3.5440 C.2     
  14 P14            1.4905     5.2365     0.5146 P.3     
  15 O15            2.4282     4.8493    -0.5630 O.2     
  16 C16            0.5510     6.7121     0.0013 C.3     
  17 N17            0.4463     6.6939    -2.4790 N.2     
  18 S18           -1.7634     5.7745    -3.1114 S.3     
  19 C19           -1.3551     5.9271    -1.4045 C.2     
  20 C20           -0.1272     6.4423    -1.3171 C.2     
  21 O21            2.8079     7.7439    -9.0407 O.3     
  22 C22            3.6490     7.9523    -7.9044 C.3     
  23 C23           -0.7365     6.1147   -11.9968 C.3     
  24 C24            0.9056     2.7006     1.1203 C.3     
  25 C25           -0.3134     1.8001     1.3301 C.3     
  26 C26           -1.4449     5.2400   -13.0483 C.3     
  27 O27           -1.3290     6.3863   -13.9150 O.3     
  28 C28           -1.2480     7.3152   -12.8153 C.3     
  29 C29            3.2369     4.6472     2.4493 C.3     
  30 C30            3.8489     5.2757     3.7029 C.3     
  31 C31            5.1430     8.0900    -8.2533 C.3     
  32 O32            5.1473     9.1784    -7.3078 O.3     
  33 C33            3.7341     9.4231    -7.4549 C.3     
  34 H34            1.0954     7.0368   -10.8869 H       
  35 H35           -1.9299     5.7387    -8.1654 H       
  36 H36            1.7823     7.2860    -6.6785 H       
  37 H37            1.0825     6.9831    -5.0103 H       
  38 H38           -0.2007     6.9447     0.7557 H       
  39 H39            1.2314     7.5568    -0.1062 H       
  40 H40           -1.9892     5.6547    -0.5738 H       
  41 H41            3.4492     7.2528    -7.0927 H       
  42 H42            0.3485     6.0102   -11.9961 H       
  43 H43            1.5102     2.3089     0.3023 H       
  44 H44            1.5010     2.7245     2.0330 H       
  45 H45           -0.9180     2.1917     2.1482 H       
  46 H46           -0.9088     1.7762     0.4174 H       
  47 H47            0.0181     0.7908     1.5741 H       
  48 H48           -0.8593     4.3801   -13.3736 H       
  49 H49           -2.4726     4.9848   -12.7896 H       
  50 H50           -2.2155     7.6937   -12.4854 H       
  51 H51           -0.5061     8.1013   -12.9558 H       
  52 H52            2.7091     3.7333     2.7217 H       
  53 H53            4.0282     4.4115     1.7377 H       
  54 H54            4.3766     6.1897     3.4305 H       
  55 H55            3.0576     5.5114     4.4145 H       
  56 H56            4.5484     4.5737     4.1567 H       
  57 H57            5.7480     7.2368    -7.9465 H       
  58 H58            5.3290     8.3988    -9.2820 H       
  59 H59            3.4899    10.1390    -8.2398 H       
  60 H60            3.2216     9.6273    -6.5148 H       
@<TRIPOS>BOND
   1    1   24 1
   2    1   14 1
   3    2   29 1
   4    2   14 1
   5    3    4 ar
   6    3   21 1
   7    3    8 ar
   8    4    5 ar
   9    4   34 1
  10    5    6 ar
  11    5    9 1
  12    6    7 ar
  13    6   35 1
  14    7    8 ar
  15    7   10 1
  16    8   36 1
  17    9   23 1
  18   10   11 am
  19   10   12 2
  20   11   13 1
  21   11   37 1
  22   13   17 2
  23   13   18 1
  24   14   15 2
  25   14   16 1
  26   16   20 1
  27   16   38 1
  28   16   39 1
  29   17   20 1
  30   18   19 1
  31   19   20 2
  32   19   40 1
  33   21   22 1
  34   22   31 1
  35   22   33 1
  36   22   41 1
  37   23   26 1
  38   23   28 1
  39   23   42 1
  40   24   25 1
  41   24   43 1
  42   24   44 1
  43   25   45 1
  44   25   46 1
  45   25   47 1
  46   26   27 1
  47   26   48 1
  48   26   49 1
  49   27   28 1
  50   28   50 1
  51   28   51 1
  52   29   30 1
  53   29   52 1
  54   29   53 1
  55   30   54 1
  56   30   55 1
  57   30   56 1
  58   31   32 1
  59   31   57 1
  60   31   58 1
  61   32   33 1
  62   33   59 1
  63   33   60 1

#	End of record

