#	Name: ASD09740107
#	Creating user name:	WinNT
#	Creation time:	15. 06. 2019 21:22

#	Modifying user name:	WinNT
#	Modification time:	15. 06. 2019 21:22

#	Program:	/corina/corina34_cracker 3.40 0067  02.08.2006

@<TRIPOS>MOLECULE
ASD09740107
  46   50    0    0    0
SMALL
NO_CHARGES


@<TRIPOS>ATOM
   1 N1            -0.0144     1.2085     0.0087 N.2     
   2 O2             0.0021    -0.0041     0.0020 O.3     
   3 C3             1.2059     1.6818    -0.0004 C.2     
   4 N4             2.0477     0.6283    -0.0141 N.2     
   5 C5             1.2718    -0.4439    -0.0125 C.2     
   6 C6             1.7134    -1.8446    -0.0242 C.2     
   7 C7             1.5921     3.1148     0.0031 C.ar    
   8 C8             0.6076     4.1018     0.0179 C.ar    
   9 C9             0.9654     5.4321     0.0217 C.ar    
  10 C10            2.3136     5.7916     0.0107 C.ar    
  11 C11            3.2986     4.8032    -0.0040 C.ar    
  12 C12            2.9394     3.4733    -0.0024 C.ar    
  13 C13            0.8938    -2.9185    -0.0221 C.2     
  14 C14            1.5675    -4.1308    -0.0351 C.2     
  15 C15            2.9212    -4.0182    -0.0474 C.2     
  16 S16            3.3878    -2.3772    -0.0507 S.3     
  17 C17            0.8687    -5.4400    -0.0350 C.ar    
  18 C18           -0.1352    -5.6967     0.8966 C.ar    
  19 C19            1.2101    -6.4149    -0.9701 C.ar    
  20 C20            0.5570    -7.6308    -0.9654 C.ar    
  21 C21           -0.4352    -7.8822    -0.0350 C.ar    
  22 C22           -0.7818    -6.9160     0.8922 C.ar    
  23 C23            2.6989     7.2211     0.0143 C.2     
  24 N24            1.8340     8.1810     0.0278 N.2     
  25 C25            2.5203     9.4802     0.0286 C.3     
  26 C26            4.0174     9.1129     0.0125 C.3     
  27 N27            4.0044     7.6405     0.0094 N.pl3   
  28 C28            3.8785    -5.1821    -0.0620 C.3     
  29 F29            4.1622    -5.5359    -1.3855 F       
  30 F30            5.0631    -4.8197     0.5880 F       
  31 F31            3.2988    -6.2710     0.5978 F       
  32 H32           -0.4359     3.8233     0.0260 H       
  33 H33            0.2026     6.1965     0.0328 H       
  34 H34            4.3422     5.0808    -0.0129 H       
  35 H35            3.7016     2.7082    -0.0135 H       
  36 H36           -0.1833    -2.8405    -0.0109 H       
  37 H37           -0.4066    -4.9430     1.6209 H       
  38 H38            1.9842    -6.2194    -1.6974 H       
  39 H39            0.8208    -8.3872    -1.6897 H       
  40 H40           -0.9440    -8.8348    -0.0351 H       
  41 H41           -1.5573    -7.1175     1.6164 H       
  42 H42            2.2576    10.0515    -0.8617 H       
  43 H43            2.2744    10.0415     0.9301 H       
  44 H44            4.4982     9.4982    -0.8867 H       
  45 H45            4.5151     9.4881     0.9067 H       
  46 H46            4.7856     7.0656     0.0002 H       
@<TRIPOS>BOND
   1    1    2 1
   2    1    3 2
   3    2    5 1
   4    3    4 1
   5    3    7 1
   6    4    5 2
   7    5    6 1
   8    6   13 2
   9    6   16 1
  10    7    8 ar
  11    7   12 ar
  12    8    9 ar
  13    8   32 1
  14    9   10 ar
  15    9   33 1
  16   10   11 ar
  17   10   23 1
  18   11   12 ar
  19   11   34 1
  20   12   35 1
  21   13   14 1
  22   13   36 1
  23   14   15 2
  24   14   17 1
  25   15   16 1
  26   15   28 1
  27   17   18 ar
  28   17   19 ar
  29   18   22 ar
  30   18   37 1
  31   19   20 ar
  32   19   38 1
  33   20   21 ar
  34   20   39 1
  35   21   22 ar
  36   21   40 1
  37   22   41 1
  38   23   24 2
  39   23   27 1
  40   24   25 1
  41   25   26 1
  42   25   42 1
  43   25   43 1
  44   26   27 1
  45   26   44 1
  46   26   45 1
  47   27   46 1
  48   28   29 1
  49   28   30 1
  50   28   31 1

#	End of record

