#	Name: ASD03090756
#	Creating user name:	WinNT
#	Creation time:	15. 06. 2019 20:29

#	Modifying user name:	WinNT
#	Modification time:	15. 06. 2019 20:29

#	Program:	/corina/corina34_cracker 3.40 0067  02.08.2006

@<TRIPOS>MOLECULE
ASD03090756
  36   38    0    0    0
SMALL
NO_CHARGES


@<TRIPOS>ATOM
   1 F1             0.0021    -0.0041     0.0020 F       
   2 C2            -0.0162     1.3468     0.0094 C.ar    
   3 C3             1.1728     2.0558     0.0019 C.ar    
   4 C4             1.1528     3.4378     0.0090 C.ar    
   5 C5            -0.0538     4.1120     0.0237 C.ar    
   6 C6            -1.2420     3.4050     0.0317 C.ar    
   7 C7            -1.2245     2.0234     0.0188 C.ar    
   8 C8            -2.5566     4.1415     0.0487 C.3     
   9 N9            -2.9963     4.3876    -1.3269 N.am    
  10 C10           -4.1547     5.0365    -1.5583 C.2     
  11 O11           -4.8330     5.4168    -0.6276 O.2     
  12 C12           -4.6070     5.2896    -2.9733 C.3     
  13 C13           -5.8421     4.5330    -3.4662 C.3     
  14 C14           -5.9306     6.0315    -3.1699 C.3     
  15 C15           -6.0352     6.9683    -4.3457 C.ar    
  16 C16           -6.2962     8.3100    -4.1393 C.ar    
  17 C17           -6.3922     9.1693    -5.2179 C.ar    
  18 C18           -6.2268     8.6870    -6.5028 C.ar    
  19 C19           -5.9649     7.3454    -6.7091 C.ar    
  20 C20           -5.8646     6.4869    -5.6303 C.ar    
  21 H21            2.1157     1.5292    -0.0092 H       
  22 H22            2.0803     3.9911     0.0035 H       
  23 H23           -0.0684     5.1919     0.0293 H       
  24 H24           -2.1527     1.4713     0.0251 H       
  25 H25           -3.3034     3.5399     0.5667 H       
  26 H26           -2.4335     5.0928     0.5664 H       
  27 H27           -2.4537     4.0834    -2.0713 H       
  28 H28           -3.8117     5.4788    -3.6944 H       
  29 H29           -5.8596     4.2248    -4.5116 H       
  30 H30           -6.3276     3.8522    -2.7669 H       
  31 H31           -6.4742     6.3365    -2.2757 H       
  32 H32           -6.4255     8.6868    -3.1355 H       
  33 H33           -6.5969    10.2174    -5.0567 H       
  34 H34           -6.3025     9.3582    -7.3454 H       
  35 H35           -5.8359     6.9686    -7.7129 H       
  36 H36           -5.6599     5.4388    -5.7914 H       
@<TRIPOS>BOND
   1    1    2 1
   2    2    3 ar
   3    2    7 ar
   4    3    4 ar
   5    3   21 1
   6    4    5 ar
   7    4   22 1
   8    5    6 ar
   9    5   23 1
  10    6    7 ar
  11    6    8 1
  12    7   24 1
  13    8    9 1
  14    8   25 1
  15    8   26 1
  16    9   10 am
  17    9   27 1
  18   10   11 2
  19   10   12 1
  20   12   13 1
  21   12   14 1
  22   12   28 1
  23   13   14 1
  24   13   29 1
  25   13   30 1
  26   14   15 1
  27   14   31 1
  28   15   16 ar
  29   15   20 ar
  30   16   17 ar
  31   16   32 1
  32   17   18 ar
  33   17   33 1
  34   18   19 ar
  35   18   34 1
  36   19   20 ar
  37   19   35 1
  38   20   36 1

#	End of record

