#	Name: ASD00310016
#	Creating user name:	WinNT
#	Creation time:	15. 06. 2019 18:33

#	Modifying user name:	WinNT
#	Modification time:	15. 06. 2019 18:33

#	Program:	/corina/corina34_cracker 3.40 0067  02.08.2006

@<TRIPOS>MOLECULE
ASD00310016
  30   32    0    0    0
SMALL
NO_CHARGES


@<TRIPOS>ATOM
   1 N1            -0.0165     1.3643     0.0095 N.pl3   
   2 C2             0.0021    -0.0041     0.0020 C.2     
   3 C3             1.2697    -0.4447    -0.0124 C.2     
   4 C4             2.1343     0.7387    -0.0143 C.ar    
   5 C5             3.5165     0.9260    -0.0265 C.ar    
   6 C6             4.0329     2.2137    -0.0245 C.ar    
   7 C7             3.1702     3.3163    -0.0104 C.ar    
   8 C8             1.8063     3.1363     0.0021 C.ar    
   9 C9             1.2721     1.8506    -0.0001 C.ar    
  10 C10            5.5017     2.4227    -0.0369 C.ar    
  11 C11            6.0753     3.2934    -0.9617 C.ar    
  12 C12            7.4411     3.4856    -0.9708 C.ar    
  13 C13            8.2442     2.8127    -0.0601 C.ar    
  14 C14            7.6757     1.9448     0.8622 C.ar    
  15 C15            6.3100     1.7530     0.8799 C.ar    
  16 O16            9.5895     3.0038    -0.0718 O.3     
  17 C17           10.3560     2.2798     0.8928 C.3     
  18 Cl18           3.8267     4.9234    -0.0080 Cl      
  19 H19           -0.8180     1.9105     0.0165 H       
  20 H20           -0.8738    -0.6359     0.0075 H       
  21 H21            1.5915    -1.4756    -0.0211 H       
  22 H22            4.1803     0.0742    -0.0371 H       
  23 H23            1.1492     3.9934     0.0137 H       
  24 H24            5.4511     3.8169    -1.6707 H       
  25 H25            7.8862     4.1600    -1.6874 H       
  26 H26            8.3031     1.4227     1.5695 H       
  27 H27            5.8678     1.0813     1.6008 H       
  28 H28           11.4119     2.5231     0.7747 H       
  29 H29           10.0299     2.5541     1.8960 H       
  30 H30           10.2108     1.2098     0.7434 H       
@<TRIPOS>BOND
   1    1    2 1
   2    1    9 1
   3    1   19 1
   4    2    3 2
   5    2   20 1
   6    3    4 1
   7    3   21 1
   8    4    5 ar
   9    4    9 ar
  10    5    6 ar
  11    5   22 1
  12    6    7 ar
  13    6   10 1
  14    7    8 ar
  15    7   18 1
  16    8    9 ar
  17    8   23 1
  18   10   11 ar
  19   10   15 ar
  20   11   12 ar
  21   11   24 1
  22   12   13 ar
  23   12   25 1
  24   13   14 ar
  25   13   16 1
  26   14   15 ar
  27   14   26 1
  28   15   27 1
  29   16   17 1
  30   17   28 1
  31   17   29 1
  32   17   30 1

#	End of record

