#	Name: ASD00310207
#	Creating user name:	WinNT
#	Creation time:	15. 06. 2019 18:34

#	Modifying user name:	WinNT
#	Modification time:	15. 06. 2019 18:34

#	Program:	/corina/corina34_cracker 3.40 0067  02.08.2006

@<TRIPOS>MOLECULE
ASD00310207
  18   19    0    0    0
SMALL
NO_CHARGES


@<TRIPOS>ATOM
   1 N1            -0.0162     1.3431     0.0094 N.pl3   
   2 C2             0.0021    -0.0041     0.0020 C.2     
   3 C3             1.3065    -0.4488    -0.0128 C.2     
   4 C4             2.1536     0.7607    -0.0144 C.ar    
   5 C5             3.5304     0.9771    -0.0264 C.ar    
   6 C6             4.0190     2.2684    -0.0241 C.ar    
   7 C7             3.1430     3.3472    -0.0100 C.ar    
   8 C8             1.7784     3.1436     0.0020 C.ar    
   9 C9             1.2683     1.8486    -0.0001 C.ar    
  10 C10            1.7463    -1.7960    -0.0238 C.2     
  11 O11            0.9352    -2.6993    -0.0210 O.2     
  12 F12            3.6319     4.6066    -0.0074 F       
  13 F13            4.3825    -0.0712    -0.0397 F       
  14 Br14           5.8857     2.5700    -0.0397 Br      
  15 H15           -0.8216     1.8837     0.0163 H       
  16 H16           -0.8719    -0.6385     0.0069 H       
  17 H17            1.1063     3.9889     0.0126 H       
  18 H18            2.8029    -2.0189    -0.0348 H       
@<TRIPOS>BOND
   1    1    2 1
   2    1    9 1
   3    1   15 1
   4    2    3 2
   5    2   16 1
   6    3    4 1
   7    3   10 1
   8    4    5 ar
   9    4    9 ar
  10    5    6 ar
  11    5   13 1
  12    6    7 ar
  13    6   14 1
  14    7    8 ar
  15    7   12 1
  16    8    9 ar
  17    8   17 1
  18   10   11 2
  19   10   18 1

#	End of record

