#	Name: ASD03091197
#	Creating user name:	WinNT
#	Creation time:	15. 06. 2019 20:30

#	Modifying user name:	WinNT
#	Modification time:	15. 06. 2019 20:30

#	Program:	/corina/corina34_cracker 3.40 0067  02.08.2006

@<TRIPOS>MOLECULE
ASD03091197
  66   69    0    0    0
SMALL
NO_CHARGES


@<TRIPOS>ATOM
   1 C1            -0.9663    -1.2196     0.0824 C.2     
   2 C2            -0.0300    -0.0418    -0.0024 C.3     
   3 O3            -0.5206    -2.3468     0.1250 O.2     
   4 N4            -2.2987    -1.0202     0.1166 N.am    
   5 C5            -3.2089    -2.1651     0.1991 C.3     
   6 C6            -4.5295    -1.7223     0.8323 C.3     
   7 C7            -3.4741    -2.7081    -1.2065 C.3     
   8 N8             3.2646    -1.0645     1.2182 N.2     
   9 C9             2.0370    -0.6484     1.1500 C.2     
  10 N10            1.3550    -0.5192    -0.0189 N.am    
  11 C11            1.9441    -0.8280    -1.1976 C.2     
  12 C12            3.3353    -1.3026    -1.1551 C.ar    
  13 C13            4.0317    -1.6468    -2.3114 C.ar    
  14 C14            5.3400    -2.0880    -2.2088 C.ar    
  15 C15            5.9555    -2.1872    -0.9611 C.ar    
  16 C16            5.2842    -1.8535     0.1804 C.ar    
  17 C17            3.9636    -1.4051     0.1058 C.ar    
  18 O18            1.3455    -0.7175    -2.2518 O.2     
  19 C19            1.3313    -0.2908     2.4326 C.3     
  20 C20            1.9370    -1.0901     3.5881 C.3     
  21 C21            1.1408    -0.8215     4.8667 C.3     
  22 C22            1.4969     1.2055     2.7057 C.3     
  23 N23            7.0998    -2.1153    -6.1121 N.3     
  24 C24            5.8746    -2.8678    -5.8020 C.3     
  25 C25            5.2032    -2.3114    -4.5561 C.3     
  26 N26            6.0481    -2.4364    -3.3624 N.3     
  27 C27            7.2636    -1.6219    -3.5005 C.3     
  28 C28            8.4073    -2.4634    -4.0467 C.3     
  29 C29            8.2656    -2.7871    -5.5203 C.3     
  30 C30            7.0667    -0.6953    -5.8345 C.3     
  31 C31            6.9516    -0.4019    -4.3477 C.3     
  32 H32           -0.2322     0.5180    -0.9155 H       
  33 H33           -0.1810     0.6053     0.8616 H       
  34 H34           -2.6551    -0.1185     0.0866 H       
  35 H35           -2.7564    -2.9457     0.8108 H       
  36 H36           -4.9820    -0.9418     0.2206 H       
  37 H37           -5.2067    -2.5742     0.8936 H       
  38 H38           -4.3406    -1.3355     1.8337 H       
  39 H39           -2.5333    -3.0236    -1.6576 H       
  40 H40           -4.1513    -3.5600    -1.1451 H       
  41 H41           -3.9266    -1.9276    -1.8182 H       
  42 H42            3.5558    -1.5706    -3.2779 H       
  43 H43            6.9766    -2.5329    -0.8968 H       
  44 H44            5.7739    -1.9363     1.1394 H       
  45 H45            0.2713    -0.5285     2.3427 H       
  46 H46            1.8990    -2.1539     3.3532 H       
  47 H47            2.9737    -0.7873     3.7352 H       
  48 H48            1.1787     0.2422     5.1016 H       
  49 H49            0.1041    -1.1243     4.7195 H       
  50 H50            1.5723    -1.3910     5.6898 H       
  51 H51            2.5568     1.4433     2.7957 H       
  52 H52            1.0654     1.7750     1.8826 H       
  53 H53            0.9865     1.4643     3.6334 H       
  54 H54            5.1859    -2.7953    -6.6438 H       
  55 H55            6.1286    -3.9147    -5.6359 H       
  56 H56            4.9753    -1.2579    -4.7185 H       
  57 H57            4.2710    -2.8503    -4.3869 H       
  58 H58            7.5469    -1.2684    -2.5091 H       
  59 H59            9.3418    -1.9230    -3.8959 H       
  60 H60            8.4525    -3.3974    -3.4866 H       
  61 H61            8.1533    -3.8648    -5.6388 H       
  62 H62            9.1657    -2.4647    -6.0436 H       
  63 H63            7.9807    -0.2393    -6.2151 H       
  64 H64            6.2129    -0.2543    -6.3490 H       
  65 H65            5.9367    -0.0693    -4.1297 H       
  66 H66            7.6475     0.3963    -4.0892 H       
@<TRIPOS>BOND
   1    1    2 1
   2    1    3 2
   3    1    4 am
   4    2   10 1
   5    2   32 1
   6    2   33 1
   7    4    5 1
   8    4   34 1
   9    5    6 1
  10    5    7 1
  11    5   35 1
  12    6   36 1
  13    6   37 1
  14    6   38 1
  15    7   39 1
  16    7   40 1
  17    7   41 1
  18    8    9 2
  19    8   17 1
  20    9   10 1
  21    9   19 1
  22   10   11 am
  23   11   12 1
  24   11   18 2
  25   12   13 ar
  26   12   17 ar
  27   13   14 ar
  28   13   42 1
  29   14   15 ar
  30   14   26 1
  31   15   16 ar
  32   15   43 1
  33   16   17 ar
  34   16   44 1
  35   19   20 1
  36   19   22 1
  37   19   45 1
  38   20   21 1
  39   20   46 1
  40   20   47 1
  41   21   48 1
  42   21   49 1
  43   21   50 1
  44   22   51 1
  45   22   52 1
  46   22   53 1
  47   23   24 1
  48   23   29 1
  49   23   30 1
  50   24   25 1
  51   24   54 1
  52   24   55 1
  53   25   26 1
  54   25   56 1
  55   25   57 1
  56   26   27 1
  57   27   28 1
  58   27   31 1
  59   27   58 1
  60   28   29 1
  61   28   59 1
  62   28   60 1
  63   29   61 1
  64   29   62 1
  65   30   31 1
  66   30   63 1
  67   30   64 1
  68   31   65 1
  69   31   66 1

#	End of record

