#	Name: ASD08150278
#	Creating user name:	WinNT
#	Creation time:	15. 06. 2019 21:15

#	Modifying user name:	WinNT
#	Modification time:	15. 06. 2019 21:15

#	Program:	/corina/corina34_cracker 3.40 0067  02.08.2006

@<TRIPOS>MOLECULE
ASD08150278
  31   32    0    0    0
SMALL
NO_CHARGES


@<TRIPOS>ATOM
   1 C1            -0.0181     1.4694     0.0153 C.2     
   2 C2             0.0014    -0.0045     0.0122 C.ar    
   3 C3             0.0193    -0.7132     1.2240 C.ar    
   4 C4             0.0371    -2.1021     1.2076 C.ar    
   5 C5             0.0371    -2.7794     0.0052 C.ar    
   6 C6             0.0199    -2.0828    -1.1926 C.ar    
   7 C7            -0.0037    -0.7051    -1.1965 C.ar    
   8 O8             1.0269     2.0914     0.0091 O.2     
   9 N9            -1.1941     2.1278     0.0193 N.am    
  10 C10           -1.2149     3.5216     0.1325 C.ar    
  11 C11           -2.1829     4.2598    -0.5361 C.ar    
  12 C12           -2.2008     5.6360    -0.4218 C.ar    
  13 C13           -1.2564     6.2790     0.3573 C.ar    
  14 C14           -0.2913     5.5470     1.0243 C.ar    
  15 C15           -0.2710     4.1701     0.9184 C.ar    
  16 C16           -0.0292     0.0453    -2.5032 C.3     
  17 N17            0.0197    -0.0293     2.4328 N.pl3   
  18 H18            0.0513    -2.6525     2.1367 H       
  19 H19            0.0510    -3.8593    -0.0024 H       
  20 H20            0.0208    -2.6226    -2.1279 H       
  21 H21           -2.0261     1.6349    -0.0564 H       
  22 H22           -2.9205     3.7583    -1.1449 H       
  23 H23           -2.9531     6.2107    -0.9417 H       
  24 H24           -1.2724     7.3554     0.4448 H       
  25 H25            0.4451     6.0522     1.6316 H       
  26 H26            0.4805     3.5986     1.4428 H       
  27 H27            0.9922     0.2398    -2.8304 H       
  28 H28           -0.5441    -0.5524    -3.2553 H       
  29 H29           -0.5540     0.9911    -2.3689 H       
  30 H30            0.0076     0.9406     2.4413 H       
  31 H31            0.0322    -0.5215     3.2685 H       
@<TRIPOS>BOND
   1    1    2 1
   2    1    8 2
   3    1    9 am
   4    2    3 ar
   5    2    7 ar
   6    3    4 ar
   7    3   17 1
   8    4    5 ar
   9    4   18 1
  10    5    6 ar
  11    5   19 1
  12    6    7 ar
  13    6   20 1
  14    7   16 1
  15    9   10 1
  16    9   21 1
  17   10   11 ar
  18   10   15 ar
  19   11   12 ar
  20   11   22 1
  21   12   13 ar
  22   12   23 1
  23   13   14 ar
  24   13   24 1
  25   14   15 ar
  26   14   25 1
  27   15   26 1
  28   16   27 1
  29   16   28 1
  30   16   29 1
  31   17   30 1
  32   17   31 1

#	End of record

