#	Name: ASD01478105
#	Creating user name:	WinNT
#	Creation time:	15. 06. 2019 19:21

#	Modifying user name:	WinNT
#	Modification time:	15. 06. 2019 19:21

#	Program:	/corina/corina34_cracker 3.40 0067  02.08.2006

@<TRIPOS>MOLECULE
ASD01478105
  19   20    0    0    0
SMALL
NO_CHARGES


@<TRIPOS>ATOM
   1 C1            -0.0189     1.5441     0.0105 C.3     
   2 C2             0.0021    -0.0041     0.0020 C.3     
   3 C3             1.4867    -0.4194    -0.0143 C.3     
   4 C4             2.2312     0.7972     0.5886 C.3     
   5 C5             1.4539     1.9996    -0.0011 C.3     
   6 C6            -1.3841     0.7423     1.6581 C.3     
   7 O7            -0.6051     1.8975     1.2800 O.3     
   8 O8            -0.5742    -0.3873     1.2674 O.3     
   9 O9             3.5952     0.8180     0.1630 O.3     
  10 H10           -0.5751     1.9484    -0.8352 H       
  11 H11           -0.5430    -0.4141    -0.8482 H       
  12 H12            1.6415    -1.3047     0.6024 H       
  13 H13            1.8201    -0.6022    -1.0358 H       
  14 H14            2.1649     0.7904     1.6765 H       
  15 H15            1.7820     2.2026    -1.0205 H       
  16 H16            1.5848     2.8821     0.6252 H       
  17 H17           -1.5536     0.7340     2.7348 H       
  18 H18           -2.3336     0.7324     1.1229 H       
  19 H19            4.1053     1.5611     0.5133 H       
@<TRIPOS>BOND
   1    1    2 1
   2    1    5 1
   3    1    7 1
   4    1   10 1
   5    2    3 1
   6    2    8 1
   7    2   11 1
   8    3    4 1
   9    3   12 1
  10    3   13 1
  11    4    5 1
  12    4    9 1
  13    4   14 1
  14    5   15 1
  15    5   16 1
  16    6    7 1
  17    6    8 1
  18    6   17 1
  19    6   18 1
  20    9   19 1

#	End of record

