#	Name: ASD00170320
#	Creating user name:	WinNT
#	Creation time:	15. 06. 2019 18:31

#	Modifying user name:	WinNT
#	Modification time:	15. 06. 2019 18:31

#	Program:	/corina/corina34_cracker 3.40 0067  02.08.2006

@<TRIPOS>MOLECULE
ASD00170320
  42   44    0    0    0
SMALL
NO_CHARGES


@<TRIPOS>ATOM
   1 N1            -0.0179     1.4657     0.0101 N.3     
   2 C2             0.0021    -0.0041     0.0020 C.3     
   3 C3            -1.3800    -0.5322     0.3997 C.3     
   4 C4            -2.4223     0.1807    -0.4478 C.2     
   5 C5            -2.1560     1.3051    -1.1232 C.2     
   6 C6            -0.8023     1.9877    -1.1188 C.3     
   7 C7            -3.7933    -0.2600    -0.6218 C.2     
   8 C8            -4.5254     0.5625    -1.4378 C.2     
   9 S9            -3.5736     1.8602    -1.9947 S.3     
  10 N10           -5.8532     0.3658    -1.7637 N.pl3   
  11 C11           -4.3392    -1.4609     0.0095 C.2     
  12 C12            1.3462     2.0108     0.0000 C.3     
  13 C13            1.2913     3.4978    -0.2382 C.ar    
  14 C14            1.2002     4.3665     0.8332 C.ar    
  15 C15            1.1497     5.7306     0.6147 C.ar    
  16 C16            1.1908     6.2259    -0.6752 C.ar    
  17 C17            1.2828     5.3572    -1.7466 C.ar    
  18 C18            1.3376     3.9934    -1.5279 C.ar    
  19 O19           -4.2697    -2.6485    -0.6269 O.3     
  20 O20           -4.8560    -1.3891     1.1086 O.2     
  21 C21           -4.8229    -3.7798     0.0485 C.3     
  22 C22           -4.6523    -5.0268    -0.8215 C.3     
  23 H23            0.2533    -0.3589    -0.9975 H       
  24 H24            0.7466    -0.3617     0.7132 H       
  25 H25           -1.4297    -1.6058     0.2179 H       
  26 H26           -1.5619    -0.3285     1.4549 H       
  27 H27           -0.9353     3.0636    -1.0056 H       
  28 H28           -0.2831     1.7769    -2.0537 H       
  29 H29           -6.3320    -0.3987    -1.4072 H       
  30 H30           -6.3068     0.9922    -2.3492 H       
  31 H31            1.8232     1.8140     0.9601 H       
  32 H32            1.9212     1.5364    -0.7953 H       
  33 H33            1.1681     3.9795     1.8410 H       
  34 H34            1.0778     6.4093     1.4517 H       
  35 H35            1.1506     7.2916    -0.8460 H       
  36 H36            1.3145     5.7442    -2.7544 H       
  37 H37            1.4095     3.3147    -2.3649 H       
  38 H38           -4.3061    -3.9252     0.9971 H       
  39 H39           -5.8832    -3.6090     0.2349 H       
  40 H40           -5.1691    -4.8814    -1.7701 H       
  41 H41           -3.5920    -5.1975    -1.0078 H       
  42 H42           -5.0743    -5.8897    -0.3063 H       
@<TRIPOS>BOND
   1    1    2 1
   2    1   12 1
   3    1    6 1
   4    2    3 1
   5    2   23 1
   6    2   24 1
   7    3    4 1
   8    3   25 1
   9    3   26 1
  10    4    5 2
  11    4    7 1
  12    5    6 1
  13    5    9 1
  14    6   27 1
  15    6   28 1
  16    7    8 2
  17    7   11 1
  18    8    9 1
  19    8   10 1
  20   10   29 1
  21   10   30 1
  22   11   19 1
  23   11   20 2
  24   12   13 1
  25   12   31 1
  26   12   32 1
  27   13   14 ar
  28   13   18 ar
  29   14   15 ar
  30   14   33 1
  31   15   16 ar
  32   15   34 1
  33   16   17 ar
  34   16   35 1
  35   17   18 ar
  36   17   36 1
  37   18   37 1
  38   19   21 1
  39   21   22 1
  40   21   38 1
  41   21   39 1
  42   22   40 1
  43   22   41 1
  44   22   42 1

#	End of record

