#	Name: ASD05430655
#	Creating user name:	WinNT
#	Creation time:	15. 06. 2019 21:00

#	Modifying user name:	WinNT
#	Modification time:	15. 06. 2019 21:00

#	Program:	/corina/corina34_cracker 3.40 0067  02.08.2006

@<TRIPOS>MOLECULE
ASD05430655
  24   24    0    0    0
SMALL
NO_CHARGES


@<TRIPOS>ATOM
   1 C1            -0.0167     1.3781     0.0096 C.ar    
   2 C2             0.0021    -0.0041     0.0020 C.ar    
   3 C3            -1.1855    -0.7115     0.0095 C.ar    
   4 C4            -2.3919    -0.0367     0.0251 C.ar    
   5 C5            -2.4106     1.3455     0.0336 C.ar    
   6 C6            -1.2230     2.0529     0.0305 C.ar    
   7 C7             1.2780     2.1493     0.0014 C.3     
   8 C8             1.7024     2.4181    -1.4438 C.3     
   9 C9             2.9481     3.3064    -1.4527 C.3     
  10 C10            2.0171     1.0914    -2.1380 C.3     
  11 H11            0.9446    -0.5313    -0.0101 H       
  12 H12           -1.1709    -1.7913     0.0029 H       
  13 H13           -3.3198    -0.5893     0.0302 H       
  14 H14           -3.3531     1.8728     0.0454 H       
  15 H15           -1.2376     3.1328     0.0372 H       
  16 H16            1.1397     3.0971     0.5217 H       
  17 H17            2.0505     1.5679     0.5048 H       
  18 H18            0.8931     2.9218    -1.9724 H       
  19 H19            3.7574     2.8027    -0.9241 H       
  20 H20            3.2504     3.4978    -2.4823 H       
  21 H21            2.7239     4.2515    -0.9582 H       
  22 H22            2.3194     1.2829    -3.1676 H       
  23 H23            2.8264     0.5877    -1.6094 H       
  24 H24            1.1296     0.4586    -2.1316 H       
@<TRIPOS>BOND
   1    1    2 ar
   2    1    7 1
   3    1    6 ar
   4    2    3 ar
   5    2   11 1
   6    3    4 ar
   7    3   12 1
   8    4    5 ar
   9    4   13 1
  10    5    6 ar
  11    5   14 1
  12    6   15 1
  13    7    8 1
  14    7   16 1
  15    7   17 1
  16    8    9 1
  17    8   10 1
  18    8   18 1
  19    9   19 1
  20    9   20 1
  21    9   21 1
  22   10   22 1
  23   10   23 1
  24   10   24 1

#	End of record

