#	Name: ASD01230515
#	Creating user name:	WinNT
#	Creation time:	15. 06. 2019 19:14

#	Modifying user name:	WinNT
#	Modification time:	15. 06. 2019 19:14

#	Program:	/corina/corina34_cracker 3.40 0067  02.08.2006

@<TRIPOS>MOLECULE
ASD01230515
  41   43    0    0    0
SMALL
NO_CHARGES


@<TRIPOS>ATOM
   1 C1            -0.0225     1.8097     0.0120 C.3     
   2 S2             0.0021    -0.0041     0.0020 S.o2    
   3 O3            -1.3056    -0.5216     0.2056 O.2     
   4 O4             0.8248    -0.4858    -1.0517 O.2     
   5 O5             0.7562    -0.3806     1.2693 O.3     
   6 F6             1.2900     2.2940     0.0021 F       
   7 F7            -0.6992     2.2732    -1.1214 F       
   8 F8            -0.6773     2.2609     1.1630 F       
   9 C9             0.0340    -0.2234     2.4097 C.ar    
  10 C10           -0.7348    -1.2713     2.8952 C.ar    
  11 C11           -1.4681    -1.1089     4.0547 C.ar    
  12 C12           -1.4363     0.0966     4.7311 C.ar    
  13 C13           -0.6713     1.1425     4.2490 C.ar    
  14 C14            0.0687     0.9832     3.0933 C.ar    
  15 S15            0.9999     0.5268     8.3241 S.o2    
  16 N16           -0.0864     0.2525     7.1164 N.am    
  17 C17           -1.3100     0.6032     7.1534 C.2     
  18 N18           -1.8864     1.2951     8.1882 N.pl3   
  19 C19           -1.0899     2.1075     9.1009 C.3     
  20 C20            0.0446     1.2588     9.6785 C.3     
  21 C21           -2.2373     0.2709     5.9957 C.3     
  22 C22           -3.2089     1.4433     5.8392 C.3     
  23 C23           -4.0624     1.6232     7.0874 C.3     
  24 C24           -3.3392     1.1806     8.3536 C.3     
  25 O25            1.4542    -0.7709     8.6831 O.2     
  26 O26            1.8946     1.4843     7.7747 O.2     
  27 H27           -0.7602    -2.2129     2.3671 H       
  28 H28           -2.0670    -1.9242     4.4329 H       
  29 H29           -0.6487     2.0834     4.7787 H       
  30 H30            0.6699     1.7990     2.7198 H       
  31 H31           -0.6703     2.9560     8.5604 H       
  32 H32           -1.7223     2.4693     9.9116 H       
  33 H33           -0.3740     0.4657    10.2980 H       
  34 H34            0.6966     1.8877    10.2846 H       
  35 H35           -2.7905    -0.6425     6.2141 H       
  36 H36           -2.6410     2.3563     5.6603 H       
  37 H37           -3.8601     1.2560     4.9853 H       
  38 H38           -4.3304     2.6754     7.1833 H       
  39 H39           -4.9748     1.0369     6.9787 H       
  40 H40           -3.5953     0.1434     8.5694 H       
  41 H41           -3.6562     1.8086     9.1862 H       
@<TRIPOS>BOND
   1    1    2 1
   2    1    6 1
   3    1    7 1
   4    1    8 1
   5    2    3 2
   6    2    4 2
   7    2    5 1
   8    5    9 1
   9    9   10 ar
  10    9   14 ar
  11   10   11 ar
  12   10   27 1
  13   11   12 ar
  14   11   28 1
  15   12   13 ar
  16   12   21 1
  17   13   14 ar
  18   13   29 1
  19   14   30 1
  20   15   16 am
  21   15   20 1
  22   15   25 2
  23   15   26 2
  24   16   17 2
  25   17   18 1
  26   17   21 1
  27   18   19 1
  28   18   24 1
  29   19   20 1
  30   19   31 1
  31   19   32 1
  32   20   33 1
  33   20   34 1
  34   21   22 1
  35   21   35 1
  36   22   23 1
  37   22   36 1
  38   22   37 1
  39   23   24 1
  40   23   38 1
  41   23   39 1
  42   24   40 1
  43   24   41 1

#	End of record

