#	Name: ASD03910074
#	Creating user name:	WinNT
#	Creation time:	15. 06. 2019 20:47

#	Modifying user name:	WinNT
#	Modification time:	15. 06. 2019 20:47

#	Program:	/corina/corina34_cracker 3.40 0067  02.08.2006

@<TRIPOS>MOLECULE
ASD03910074
  64   65    0    0    0
SMALL
NO_CHARGES


@<TRIPOS>ATOM
   1 C1             0.6502     0.9632    -0.5679 C.3     
   2 C2             1.2169    -0.4792    -0.4934 C.3     
   3 C3             2.3888    -0.3393     0.5010 C.3     
   4 N4             2.7882     1.0756     0.5085 N.am    
   5 C5             1.9412     1.8111    -0.4481 C.3     
   6 C6             3.7662     1.6117     1.2652 C.2     
   7 O7             4.0714     2.7771     1.1252 O.2     
   8 C8             4.4805     0.7630     2.2853 C.3     
   9 C9             1.6195     3.1839     0.0839 C.2     
  10 N10            1.3755     4.1975    -0.7702 N.am    
  11 O11            1.5803     3.3766     1.2807 O.2     
  12 C12            1.6712     5.5436    -2.7305 C.3     
  13 C13            1.3837     4.1022    -2.2413 C.3     
  14 C14            1.0508     5.5798    -0.3891 C.3     
  15 C15            0.8803     6.3867    -1.6935 C.3     
  16 C16           -0.2322     5.6057     0.4010 C.2     
  17 O17           -0.7187     6.7723     0.8529 O.3     
  18 O18           -0.8230     4.5764     0.6277 O.2     
  19 N19            5.8828     1.1786     2.3706 N.am    
  20 C20            3.8131     0.9370     3.6509 C.3     
  21 O21            4.5547     0.2184     4.6387 O.3     
  22 C22            2.3833     0.3954     3.5926 C.3     
  23 C23            6.8192     0.3073     2.7951 C.2     
  24 C24            8.2617     0.7348     2.8828 C.3     
  25 O25            6.5011    -0.8209     3.1065 O.2     
  26 C26            8.8956     0.6793     1.4914 C.3     
  27 N27            8.9859    -0.1682     3.7873 N.3     
  28 C28           10.3600     1.1133     1.5805 C.3     
  29 C29            8.1413     1.6198     0.5495 C.3     
  30 C30           11.0275     0.9393     0.2148 C.3     
  31 H31            0.1544     1.1393    -1.5225 H       
  32 H32           -0.0257     1.1609     0.2640 H       
  33 H33            0.4656    -1.1693    -0.1094 H       
  34 H34            1.5764    -0.8033    -1.4700 H       
  35 H35            2.0665    -0.6388     1.4983 H       
  36 H36            3.2252    -0.9589     0.1778 H       
  37 H37            2.4377     1.8850    -1.4156 H       
  38 H38            4.4294    -0.2841     1.9867 H       
  39 H39            2.7373     5.7659    -2.6861 H       
  40 H40            1.2828     5.6994    -3.7369 H       
  41 H41            2.1706     3.4249    -2.5733 H       
  42 H42            0.4131     3.7647    -2.6050 H       
  43 H43            1.8624     6.0012     0.2041 H       
  44 H44            1.3156     7.3808    -1.5921 H       
  45 H45           -0.1718     6.4517    -1.9711 H       
  46 H46           -1.5445     6.7386     1.3549 H       
  47 H47            6.1372     2.0809     2.1215 H       
  48 H48            3.7904     1.9951     3.9121 H       
  49 H49            5.4723     0.5094     4.7304 H       
  50 H50            2.4088    -0.6776     3.4022 H       
  51 H51            1.8842     0.5840     4.5430 H       
  52 H52            1.8384     0.8938     2.7909 H       
  53 H53            8.3160     1.7536     3.2664 H       
  54 H54            8.8413    -0.3395     1.1078 H       
  55 H55            8.6274    -0.1017     4.7281 H       
  56 H56            8.9502    -1.1197     3.4532 H       
  57 H57           10.4111     2.1604     1.8791 H       
  58 H58           10.8767     0.4995     2.3183 H       
  59 H59            7.0980     1.3106     0.4860 H       
  60 H60            8.1956     2.6386     0.9331 H       
  61 H61            8.5929     1.5802    -0.4418 H       
  62 H62           12.0708     1.2485     0.2783 H       
  63 H63           10.9764    -0.1078    -0.0838 H       
  64 H64           10.5108     1.5531    -0.5230 H       
@<TRIPOS>BOND
   1    1    2 1
   2    1    5 1
   3    1   31 1
   4    1   32 1
   5    2    3 1
   6    2   33 1
   7    2   34 1
   8    3    4 1
   9    3   35 1
  10    3   36 1
  11    4    5 1
  12    4    6 am
  13    5    9 1
  14    5   37 1
  15    6    7 2
  16    6    8 1
  17    8   19 1
  18    8   20 1
  19    8   38 1
  20    9   10 am
  21    9   11 2
  22   10   14 1
  23   10   13 1
  24   12   13 1
  25   12   15 1
  26   12   39 1
  27   12   40 1
  28   13   41 1
  29   13   42 1
  30   14   15 1
  31   14   16 1
  32   14   43 1
  33   15   44 1
  34   15   45 1
  35   16   17 1
  36   16   18 2
  37   17   46 1
  38   19   23 am
  39   19   47 1
  40   20   21 1
  41   20   22 1
  42   20   48 1
  43   21   49 1
  44   22   50 1
  45   22   51 1
  46   22   52 1
  47   23   24 1
  48   23   25 2
  49   24   26 1
  50   24   27 1
  51   24   53 1
  52   26   28 1
  53   26   29 1
  54   26   54 1
  55   27   55 1
  56   27   56 1
  57   28   30 1
  58   28   57 1
  59   28   58 1
  60   29   59 1
  61   29   60 1
  62   29   61 1
  63   30   62 1
  64   30   63 1
  65   30   64 1

#	End of record

