#	Name: ASD09360012
#	Creating user name:	WinNT
#	Creation time:	15. 06. 2019 21:21

#	Modifying user name:	WinNT
#	Modification time:	15. 06. 2019 21:21

#	Program:	/corina/corina34_cracker 3.40 0067  02.08.2006

@<TRIPOS>MOLECULE
ASD09360012
  93   99    0    0    0
SMALL
NO_CHARGES


@<TRIPOS>ATOM
   1 N1            -0.2120     1.6842     0.4014 N.am    
   2 C2            -0.2795     0.3738     0.1044 C.2     
   3 C3            -1.6753    -0.0970     0.2129 C.2     
   4 C4            -2.4669     0.9386     0.5802 C.2     
   5 C5            -1.5671     2.1434     0.7280 C.3     
   6 C6             0.9440     2.4676     0.4044 C.ar    
   7 C7            -1.6208     2.6598     2.1428 C.ar    
   8 C8            -3.9156     0.8973     0.7978 C.2     
   9 O9             0.6681    -0.3201    -0.2076 O.2     
  10 O10           -2.0963    -1.3618    -0.0184 O.3     
  11 O11           -4.3748     0.2420     1.7147 O.2     
  12 C12           -4.8184     1.6513    -0.0957 C.ar    
  13 C13           -2.3103     3.8210     2.4264 C.ar    
  14 C14           -2.3591     4.2973     3.7352 C.ar    
  15 C15           -1.7106     3.5974     4.7505 C.ar    
  16 C16           -1.0237     2.4370     4.4553 C.ar    
  17 C17           -0.9834     1.9658     3.1557 C.ar    
  18 C18            2.1695     1.8978     0.0783 C.ar    
  19 C19            3.3119     2.6692     0.0810 C.ar    
  20 C20            3.2376     4.0218     0.4107 C.ar    
  21 C21            2.0077     4.5913     0.7370 C.ar    
  22 C22            0.8669     3.8175     0.7279 C.ar    
  23 C23           -6.1983     1.6345     0.1278 C.ar    
  24 C24           -7.0383     2.3377    -0.7051 C.ar    
  25 C25           -6.5131     3.0673    -1.7725 C.ar    
  26 C26           -5.1359     3.0846    -1.9970 C.ar    
  27 C27           -4.2932     2.3869    -1.1622 C.ar    
  28 C28            4.4658     4.8537     0.4148 C.ar    
  29 C29            4.3929     6.2050     0.7439 C.ar    
  30 C30            5.5435     6.9764     0.7464 C.ar    
  31 C31            6.7647     6.4027     0.4210 C.ar    
  32 C32            6.8376     5.0614     0.0937 C.ar    
  33 C33            5.6973     4.2839     0.0948 C.ar    
  34 O34            5.4765     8.2954     1.0670 O.3     
  35 C35           -3.0985     5.5455     4.0462 C.ar    
  36 C36           -4.0961     5.5441     5.0218 C.ar    
  37 C37           -4.7809     6.7111     5.3069 C.ar    
  38 C38           -4.4780     7.8763     4.6271 C.ar    
  39 C39           -3.4899     7.8820     3.6587 C.ar    
  40 C40           -2.7955     6.7251     3.3693 C.ar    
  41 C41           -7.4192     3.8244    -2.6689 C.ar    
  42 C42           -6.9103     4.4708    -3.7946 C.ar    
  43 C43           -7.7585     5.1741    -4.6254 C.ar    
  44 C44           -9.1113     5.2384    -4.3431 C.ar    
  45 C45           -9.6219     4.5994    -3.2274 C.ar    
  46 C46           -8.7843     3.8880    -2.3928 C.ar    
  47 C47            8.5073    14.9710     2.1656 C.3     
  48 F48           -4.3924     4.4055     5.6858 F       
  49 C49            6.7018     9.0305     1.0493 C.3     
  50 C50            6.4290    10.4860     1.4341 C.3     
  51 C51            7.7409    11.2730     1.4151 C.3     
  52 C52            7.4681    12.7285     1.7999 C.3     
  53 C53            8.7801    13.5155     1.7809 C.3     
  54 H54           -1.8701     2.9251     0.0314 H       
  55 H55           -1.3897    -1.9713    -0.2723 H       
  56 H56           -2.8110     4.3598     1.6355 H       
  57 H57           -1.7448     3.9623     5.7664 H       
  58 H58           -0.5207     1.8936     5.2415 H       
  59 H59           -0.4449     1.0574     2.9292 H       
  60 H60            2.2266     0.8500    -0.1771 H       
  61 H61            4.2638     2.2261    -0.1717 H       
  62 H62            1.9481     5.6388     0.9930 H       
  63 H63           -0.0862     4.2584     0.9803 H       
  64 H64           -6.6050     1.0696     0.9536 H       
  65 H65           -8.1044     2.3246    -0.5328 H       
  66 H66           -4.7308     3.6494    -2.8237 H       
  67 H67           -3.2274     2.4004    -1.3362 H       
  68 H68            3.4418     6.6503     0.9962 H       
  69 H69            7.6606     7.0058     0.4231 H       
  70 H70            7.7902     4.6199    -0.1594 H       
  71 H71            5.7574     3.2365    -0.1614 H       
  72 H72           -5.5536     6.7123     6.0613 H       
  73 H73           -5.0152     8.7856     4.8527 H       
  74 H74           -3.2583     8.7954     3.1310 H       
  75 H75           -2.0244     6.7319     2.6132 H       
  76 H76           -5.8543     4.4216    -4.0157 H       
  77 H77           -7.3655     5.6755    -5.4974 H       
  78 H78           -9.7714     5.7900    -4.9962 H       
  79 H79          -10.6788     4.6534    -3.0119 H       
  80 H80           -9.1840     3.3895    -1.5220 H       
  81 H81            7.8095    15.4106     1.4529 H       
  82 H82            8.0760    15.0076     3.1660 H       
  83 H83            9.4419    15.5316     2.1521 H       
  84 H84            7.3995     8.5909     1.7621 H       
  85 H85            7.1330     8.9938     0.0489 H       
  86 H86            5.7313    10.9256     0.7213 H       
  87 H87            5.9978    10.5226     2.4345 H       
  88 H88            8.4387    10.8334     2.1279 H       
  89 H89            8.1722    11.2363     0.4147 H       
  90 H90            6.7704    13.1681     1.0871 H       
  91 H91            7.0369    12.7651     2.8003 H       
  92 H92            9.2113    13.4788     0.7805 H       
  93 H93            9.4778    13.0759     2.4936 H       
@<TRIPOS>BOND
   1    1    2 am
   2    1    6 1
   3    1    5 1
   4    2    3 1
   5    2    9 2
   6    3    4 2
   7    3   10 1
   8    4    5 1
   9    4    8 1
  10    5    7 1
  11    5   54 1
  12    6   18 ar
  13    6   22 ar
  14    7   13 ar
  15    7   17 ar
  16    8   11 2
  17    8   12 1
  18   10   55 1
  19   12   23 ar
  20   12   27 ar
  21   13   14 ar
  22   13   56 1
  23   14   15 ar
  24   14   35 1
  25   15   16 ar
  26   15   57 1
  27   16   17 ar
  28   16   58 1
  29   17   59 1
  30   18   19 ar
  31   18   60 1
  32   19   20 ar
  33   19   61 1
  34   20   21 ar
  35   20   28 1
  36   21   22 ar
  37   21   62 1
  38   22   63 1
  39   23   24 ar
  40   23   64 1
  41   24   25 ar
  42   24   65 1
  43   25   26 ar
  44   25   41 1
  45   26   27 ar
  46   26   66 1
  47   27   67 1
  48   28   29 ar
  49   28   33 ar
  50   29   30 ar
  51   29   68 1
  52   30   31 ar
  53   30   34 1
  54   31   32 ar
  55   31   69 1
  56   32   33 ar
  57   32   70 1
  58   33   71 1
  59   34   49 1
  60   35   36 ar
  61   35   40 ar
  62   36   37 ar
  63   36   48 1
  64   37   38 ar
  65   37   72 1
  66   38   39 ar
  67   38   73 1
  68   39   40 ar
  69   39   74 1
  70   40   75 1
  71   41   42 ar
  72   41   46 ar
  73   42   43 ar
  74   42   76 1
  75   43   44 ar
  76   43   77 1
  77   44   45 ar
  78   44   78 1
  79   45   46 ar
  80   45   79 1
  81   46   80 1
  82   47   53 1
  83   47   81 1
  84   47   82 1
  85   47   83 1
  86   49   50 1
  87   49   84 1
  88   49   85 1
  89   50   51 1
  90   50   86 1
  91   50   87 1
  92   51   52 1
  93   51   88 1
  94   51   89 1
  95   52   53 1
  96   52   90 1
  97   52   91 1
  98   53   92 1
  99   53   93 1

#	End of record

