#	Name: ASD01816683
#	Creating user name:	WinNT
#	Creation time:	15. 06. 2019 19:35

#	Modifying user name:	WinNT
#	Modification time:	15. 06. 2019 19:35

#	Program:	/corina/corina34_cracker 3.40 0067  02.08.2006

@<TRIPOS>MOLECULE
ASD01816683
  71   75    0    0    0
SMALL
NO_CHARGES


@<TRIPOS>ATOM
   1 C1            -0.0037     1.4600    -0.0288 C.2     
   2 C2            -0.0003     0.0585    -0.0318 C.2     
   3 C3             1.1887    -0.6101    -0.0373 C.2     
   4 C4             2.3903     0.1180    -0.0398 C.2     
   5 N5             2.3575     1.4861    -0.0363 N.am    
   6 C6             1.1629     2.1435    -0.0313 C.2     
   7 C7             3.6136    -0.5662    -0.0453 C.2     
   8 C8             4.7865     0.1322    -0.0478 C.2     
   9 C9             4.7484     1.5381    -0.0447 C.2     
  10 C10            3.5030     2.1972    -0.0389 C.2     
  11 C11            3.6340    -2.0731    -0.0481 C.3     
  12 O12            3.4611     3.4160    -0.0362 O.2     
  13 C13            5.9944     2.3116    -0.0467 C.2     
  14 N14            7.1804     1.6789     0.0504 N.am    
  15 O15            5.9573     3.5249    -0.1361 O.2     
  16 N16            3.7565    -2.5586    -1.4291 N.3     
  17 C17            4.0172    -4.0035    -1.4578 C.3     
  18 C18            4.2827    -4.4468    -2.8983 C.3     
  19 C19            3.0642    -4.1118    -3.7630 C.3     
  20 C20            2.7850    -2.6087    -3.6773 C.3     
  21 C21            2.5629    -2.2187    -2.2142 C.3     
  22 C22            3.3430    -4.4914    -5.1945 C.ar    
  23 C23            8.4276     2.4394    -0.0616 C.3     
  24 C24            8.7933     3.0234     1.3044 C.3     
  25 C25            9.5488     1.5131    -0.5370 C.3     
  26 C26           10.8512     2.3073    -0.6540 C.3     
  27 C27           11.2169     2.8914     0.7121 C.3     
  28 C28           10.0958     3.8176     1.1874 C.3     
  29 O29            9.2072     0.9677    -1.8128 O.3     
  30 C30            2.6159    -5.5015    -5.7957 C.ar    
  31 C31            1.8937    -4.8583    -3.2738 C.1     
  32 N32            0.9903    -5.4344    -2.8963 N.1     
  33 C33            2.8717    -5.8498    -7.1090 C.ar    
  34 C34            3.8541    -5.1876    -7.8209 C.ar    
  35 C35            4.5807    -4.1766    -7.2198 C.ar    
  36 C36            4.3221    -3.8255    -5.9082 C.ar    
  37 C37            1.5448    -6.2235    -5.0196 C.3     
  38 F38            1.0247    -7.2627    -5.7986 F       
  39 F39            2.0944    -6.7506    -3.8460 F       
  40 F40            0.5209    -5.3276    -4.6937 F       
  41 H41           -0.9414     1.9959    -0.0289 H       
  42 H42           -0.9319    -0.4879    -0.0295 H       
  43 H43            1.2062    -1.6900    -0.0394 H       
  44 H44            1.1484     3.2234    -0.0286 H       
  45 H45            5.7326    -0.3887    -0.0517 H       
  46 H46            4.4828    -2.4260     0.5377 H       
  47 H47            2.7092    -2.4498     0.3888 H       
  48 H48            7.2083     0.7201     0.1945 H       
  49 H49            4.8885    -4.2276    -0.8424 H       
  50 H50            3.1503    -4.5368    -1.0676 H       
  51 H51            5.1578    -3.9241    -3.2844 H       
  52 H52            4.4607    -5.5219    -2.9212 H       
  53 H53            3.6366    -2.0571    -4.0757 H       
  54 H54            1.8931    -2.3707    -4.2568 H       
  55 H55            1.7029    -2.7604    -1.8205 H       
  56 H56            2.3780    -1.1466    -2.1482 H       
  57 H57            8.2962     3.2490    -0.7795 H       
  58 H58            7.9945     3.6833     1.6431 H       
  59 H59            8.9246     2.2138     2.0223 H       
  60 H60            9.6801     0.7035     0.1810 H       
  61 H61           11.6500     1.6475    -0.9926 H       
  62 H62           10.7199     3.1169    -1.3719 H       
  63 H63           11.3483     2.0818     1.4300 H       
  64 H64           12.1448     3.4572     0.6287 H       
  65 H65            9.9644     4.6272     0.4695 H       
  66 H66           10.3563     4.2337     2.1606 H       
  67 H67            9.8745     0.3695    -2.1762 H       
  68 H68            2.3041    -6.6396    -7.5786 H       
  69 H69            4.0543    -5.4602    -8.8465 H       
  70 H70            5.3486    -3.6594    -7.7759 H       
  71 H71            4.8897    -3.0357    -5.4387 H       
@<TRIPOS>BOND
   1    1    2 1
   2    1    6 2
   3    1   41 1
   4    2    3 2
   5    2   42 1
   6    3    4 1
   7    3   43 1
   8    4    5 1
   9    4    7 2
  10    5    6 1
  11    5   10 am
  12    6   44 1
  13    7    8 1
  14    7   11 1
  15    8    9 2
  16    8   45 1
  17    9   10 1
  18    9   13 1
  19   10   12 2
  20   11   16 1
  21   11   46 1
  22   11   47 1
  23   13   14 am
  24   13   15 2
  25   14   23 1
  26   14   48 1
  27   16   17 1
  28   16   21 1
  29   17   18 1
  30   17   49 1
  31   17   50 1
  32   18   19 1
  33   18   51 1
  34   18   52 1
  35   19   20 1
  36   19   22 1
  37   19   31 1
  38   20   21 1
  39   20   53 1
  40   20   54 1
  41   21   55 1
  42   21   56 1
  43   22   30 ar
  44   22   36 ar
  45   23   24 1
  46   23   25 1
  47   23   57 1
  48   24   28 1
  49   24   58 1
  50   24   59 1
  51   25   26 1
  52   25   29 1
  53   25   60 1
  54   26   27 1
  55   26   61 1
  56   26   62 1
  57   27   28 1
  58   27   63 1
  59   27   64 1
  60   28   65 1
  61   28   66 1
  62   29   67 1
  63   30   33 ar
  64   30   37 1
  65   31   32 3
  66   33   34 ar
  67   33   68 1
  68   34   35 ar
  69   34   69 1
  70   35   36 ar
  71   35   70 1
  72   36   71 1
  73   37   38 1
  74   37   39 1
  75   37   40 1

#	End of record

