#	Name: ASD01231337
#	Creating user name:	WinNT
#	Creation time:	15. 06. 2019 19:15

#	Modifying user name:	WinNT
#	Modification time:	15. 06. 2019 19:15

#	Program:	/corina/corina34_cracker 3.40 0067  02.08.2006

@<TRIPOS>MOLECULE
ASD01231337
  54   56    0    0    0
SMALL
NO_CHARGES


@<TRIPOS>ATOM
   1 C1             0.6358     1.7844     0.2903 C.ar    
   2 C2             0.4130     0.4207     0.2600 C.ar    
   3 C3            -0.8774    -0.0706     0.3291 C.ar    
   4 C4            -1.9447     0.8019     0.4289 C.ar    
   5 C5            -1.7218     2.1660     0.4602 C.ar    
   6 C6            -0.4314     2.6571     0.3955 C.ar    
   7 S7             2.2804     2.4106     0.2022 S.o2    
   8 C8            -1.1204    -1.5575     0.2950 C.3     
   9 C9            -1.1073    -2.1010     1.7005 C.ar    
  10 C10           -2.2795    -2.1598     2.4303 C.ar    
  11 C11            0.0754    -2.5461     2.2587 C.ar    
  12 C12            0.0918    -3.0460     3.5497 C.ar    
  13 C13           -1.0798    -3.0993     4.2819 C.ar    
  14 C14           -2.2652    -2.6582     3.7187 C.ar    
  15 C15            1.2376    -3.5869     4.3779 C.3     
  16 C16            0.5702    -4.3764     5.5240 C.3     
  17 C17           -0.8010    -3.6794     5.6519 C.3     
  18 N18            1.3392    -4.2443     6.7640 N.am    
  19 N19            2.6336     2.6370    -1.3998 N.am    
  20 O20            2.2500     3.7027     0.7929 O.2     
  21 O21            3.1317     1.3679     0.6573 O.2     
  22 C22            1.8957     3.6344    -2.1787 C.3     
  23 C23           -0.2332    -5.7869     8.4011 C.3     
  24 C24           -0.2555    -6.9675     9.3740 C.3     
  25 C25           -0.7201    -4.5260     9.1181 C.3     
  26 S26            1.4599    -5.5273     7.8040 S.o2    
  27 O27            1.8692    -6.6096     6.9793 O.2     
  28 O28            2.2912    -5.0507     8.8534 O.2     
  29 H29            1.2470    -0.2611     0.1819 H       
  30 H30           -2.9528     0.4181     0.4822 H       
  31 H31           -2.5558     2.8478     0.5379 H       
  32 H32           -0.2573     3.7226     0.4200 H       
  33 H33           -2.0894    -1.7569    -0.1627 H       
  34 H34           -0.3366    -2.0405    -0.2886 H       
  35 H35           -3.2058    -1.8162     1.9939 H       
  36 H36            0.9901    -2.5043     1.6860 H       
  37 H37           -3.1808    -2.6997     4.2900 H       
  38 H38            1.8603    -4.2484     3.7755 H       
  39 H39            1.8335    -2.7676     4.7799 H       
  40 H40            0.4480    -5.4249     5.2524 H       
  41 H41           -0.7534    -2.8849     6.3966 H       
  42 H42           -1.5700    -4.4040     5.9195 H       
  43 H43            1.7775    -3.4053     6.9758 H       
  44 H44            3.3291     2.1091    -1.8224 H       
  45 H45            2.2646     3.6400    -3.2044 H       
  46 H46            0.8345     3.3854    -2.1756 H       
  47 H47            2.0389     4.6200    -1.7357 H       
  48 H48           -0.8878    -6.0000     7.5560 H       
  49 H49           -1.2729    -7.1235     9.7328 H       
  50 H50            0.0913    -7.8658     8.8632 H       
  51 H51            0.3991    -6.7544    10.2190 H       
  52 H52           -1.7669    -4.6477     9.3966 H       
  53 H53           -0.1220    -4.3641    10.0148 H       
  54 H54           -0.6183    -3.6680     8.4536 H       
@<TRIPOS>BOND
   1    1    2 ar
   2    1    7 1
   3    1    6 ar
   4    2    3 ar
   5    2   29 1
   6    3    4 ar
   7    3    8 1
   8    4    5 ar
   9    4   30 1
  10    5    6 ar
  11    5   31 1
  12    6   32 1
  13    7   19 am
  14    7   20 2
  15    7   21 2
  16    8    9 1
  17    8   33 1
  18    8   34 1
  19    9   10 ar
  20    9   11 ar
  21   10   14 ar
  22   10   35 1
  23   11   12 ar
  24   11   36 1
  25   12   13 ar
  26   12   15 1
  27   13   14 ar
  28   13   17 1
  29   14   37 1
  30   15   16 1
  31   15   38 1
  32   15   39 1
  33   16   17 1
  34   16   18 1
  35   16   40 1
  36   17   41 1
  37   17   42 1
  38   18   26 am
  39   18   43 1
  40   19   22 1
  41   19   44 1
  42   22   45 1
  43   22   46 1
  44   22   47 1
  45   23   24 1
  46   23   25 1
  47   23   26 1
  48   23   48 1
  49   24   49 1
  50   24   50 1
  51   24   51 1
  52   25   52 1
  53   25   53 1
  54   25   54 1
  55   26   27 2
  56   26   28 2

#	End of record

