#	Name: ASD03081187
#	Creating user name:	WinNT
#	Creation time:	15. 06. 2019 20:27

#	Modifying user name:	WinNT
#	Modification time:	15. 06. 2019 20:27

#	Program:	/corina/corina34_cracker 3.40 0067  02.08.2006

@<TRIPOS>MOLECULE
ASD03081187
  29   31    0    0    0
SMALL
NO_CHARGES


@<TRIPOS>ATOM
   1 N1            -0.0180     1.4746     0.0101 N.3     
   2 C2             0.0278    -0.0035     0.0168 C.3     
   3 C3             1.3750    -0.4123    -0.6319 C.3     
   4 C4             2.0730     0.9209    -0.9780 C.3     
   5 C5             1.3953     1.9286    -0.0162 C.3     
   6 N6            -0.3900    -1.6346    -1.6938 N.3     
   7 C7            -1.0540    -0.5358    -0.9475 C.3     
   8 C8             0.9849    -1.1289    -1.9407 C.3     
   9 C9            -1.7459     2.8402     1.0108 C.ar    
  10 C10           -0.6788     1.9602     1.1413 C.ar    
  11 C11           -0.2779     1.5688     2.4163 C.ar    
  12 C12           -0.9646     2.0770     3.5069 C.ar    
  13 C13           -2.0166     2.9486     3.2962 C.ar    
  14 N14           -2.3718     3.2999     2.0756 N.ar    
  15 H15           -0.0762    -0.4065     1.0242 H       
  16 H16            1.9800    -1.0368     0.0255 H       
  17 H17            3.1430     0.8587    -0.7797 H       
  18 H18            1.8876     1.1949    -2.0166 H       
  19 H19            1.4663     2.9428    -0.4091 H       
  20 H20            1.8374     1.8682     0.9783 H       
  21 H21           -0.3706    -2.4827    -1.1475 H       
  22 H22           -1.9066    -0.9191    -0.3869 H       
  23 H23           -1.3716     0.2502    -1.6326 H       
  24 H24            0.9878    -0.4266    -2.7743 H       
  25 H25            1.6651    -1.9575    -2.1380 H       
  26 H26           -2.0628     3.1542     0.0273 H       
  27 H27            0.5477     0.8858     2.5515 H       
  28 H28           -0.6816     1.7951     4.5103 H       
  29 H29           -2.5554     3.3473     4.1430 H       
@<TRIPOS>BOND
   1    1    2 1
   2    1    5 1
   3    1   10 1
   4    2    3 1
   5    2    7 1
   6    2   15 1
   7    3    4 1
   8    3    8 1
   9    3   16 1
  10    4    5 1
  11    4   17 1
  12    4   18 1
  13    5   19 1
  14    5   20 1
  15    6    7 1
  16    6    8 1
  17    6   21 1
  18    7   22 1
  19    7   23 1
  20    8   24 1
  21    8   25 1
  22    9   10 ar
  23    9   14 ar
  24    9   26 1
  25   10   11 ar
  26   11   12 ar
  27   11   27 1
  28   12   13 ar
  29   12   28 1
  30   13   14 ar
  31   13   29 1

#	End of record

