#	Name: ASD00540004
#	Creating user name:	WinNT
#	Creation time:	15. 06. 2019 18:36

#	Modifying user name:	WinNT
#	Modification time:	15. 06. 2019 18:36

#	Program:	/corina/corina34_cracker 3.40 0067  02.08.2006

@<TRIPOS>MOLECULE
ASD00540004
  33   36    0    0    0
SMALL
NO_CHARGES


@<TRIPOS>ATOM
   1 Cl1           -1.8013    -1.2874    -1.8441 Cl      
   2 C2            -0.0142     1.3615     0.0277 C.2     
   3 N3             0.0040    -0.0022     0.0105 N.pl3   
   4 S4            -2.2853    -0.9839     1.0481 S.o     
   5 C5             1.1375     2.0615     0.0329 C.2     
   6 N6             3.3505    -2.6375    -0.0877 N.ar    
   7 S7            -3.7788    -3.5689     2.0733 S.3     
   8 C8             2.3752     1.3846     0.0209 C.2     
   9 N9            -0.3251    -2.4290     0.4199 N.pl3   
  10 C10            2.4156     0.0313     0.0506 C.2     
  11 N11           -1.2871    -3.2953     0.9207 N.2     
  12 C12            1.2031    -0.7107     0.0925 C.2     
  13 C13            1.0171    -2.0719     0.2366 C.2     
  14 C14            2.1124    -3.0435     0.2015 C.ar    
  15 C15            1.8541    -4.3960     0.4716 C.ar    
  16 C16            2.8884    -5.2925     0.4349 C.ar    
  17 C17            4.1650    -4.8293     0.1298 C.ar    
  18 C18            4.3591    -3.4863    -0.1272 C.ar    
  19 C19           -2.4096    -2.7365     1.3406 C.2     
  20 C20           -3.1714    -5.2733     2.0278 C.3     
  21 Cu21          -1.1183    -1.1174    -0.1224 Du      
  22 H22           -0.9591     1.8845     0.0327 H       
  23 H23           -3.3962    -0.7161     0.3387 H       
  24 H24            1.1128     3.1412     0.0459 H       
  25 H25            3.2955     1.9488    -0.0125 H       
  26 H26            3.3654    -0.4827     0.0421 H       
  27 H27            0.8526    -4.7255     0.7057 H       
  28 H28            2.7170    -6.3391     0.6391 H       
  29 H29            4.9983    -5.5155     0.0946 H       
  30 H30            5.3494    -3.1267    -0.3647 H       
  31 H31           -3.9212    -5.9378     2.4572 H       
  32 H32           -2.9783    -5.5627     0.9948 H       
  33 H33           -2.2490    -5.3459     2.6040 H       
@<TRIPOS>BOND
   1    1   21 1
   2    2    3 1
   3    2    5 2
   4    2   22 1
   5    3   12 1
   6    3   21 1
   7    4   19 1
   8    4   21 2
   9    4   23 1
  10    5    8 1
  11    5   24 1
  12    6   14 ar
  13    6   18 ar
  14    7   19 1
  15    7   20 1
  16    8   10 2
  17    8   25 1
  18    9   11 1
  19    9   13 1
  20    9   21 1
  21   10   12 1
  22   10   26 1
  23   11   19 2
  24   12   13 2
  25   13   14 1
  26   14   15 ar
  27   15   16 ar
  28   15   27 1
  29   16   17 ar
  30   16   28 1
  31   17   18 ar
  32   17   29 1
  33   18   30 1
  34   20   31 1
  35   20   32 1
  36   20   33 1

#	End of record

