#	Name: ASD03090627
#	Creating user name:	WinNT
#	Creation time:	15. 06. 2019 20:29

#	Modifying user name:	WinNT
#	Modification time:	15. 06. 2019 20:29

#	Program:	/corina/corina34_cracker 3.40 0067  02.08.2006

@<TRIPOS>MOLECULE
ASD03090627
  34   35    0    0    0
SMALL
NO_CHARGES


@<TRIPOS>ATOM
   1 N1            -0.0162     1.3436     0.0094 N.am    
   2 C2             0.0259     0.1493     0.6327 C.2     
   3 O3             1.0821    -0.2777     1.0577 O.2     
   4 N4            -1.1026    -0.5716     0.7850 N.am    
   5 S5            -2.4088    -2.8195     1.6892 S.3     
   6 C6            -1.0592    -1.8031     1.4277 C.2     
   7 N7             0.0106    -2.3484     1.9162 N.2     
   8 C8            -0.1303    -3.5263     2.4956 C.2     
   9 C9            -1.3782    -3.9983     2.4965 C.2     
  10 C10           -1.8276    -5.3105     3.0856 C.3     
  11 C11            1.1404     2.1314    -0.0750 C.ar    
  12 C12            1.0339     3.5108    -0.2053 C.ar    
  13 C13            2.1744     4.2862    -0.2879 C.ar    
  14 C14            3.4252     3.6877    -0.2412 C.ar    
  15 C15            3.5315     2.3109    -0.1116 C.ar    
  16 C16            2.3922     1.5347    -0.0227 C.ar    
  17 C17            4.8907     1.6620    -0.0615 C.3     
  18 O18            4.5473     4.4512    -0.3230 O.3     
  19 C19            4.3638     5.8621    -0.4556 C.3     
  20 Cl20          -0.5313     4.2593    -0.2648 Cl      
  21 H21           -0.8458     1.6562    -0.3843 H       
  22 H22           -1.9452    -0.2309     0.4459 H       
  23 H23            0.6976    -4.0644     2.9331 H       
  24 H24           -2.9012    -5.4268     2.9370 H       
  25 H25           -1.3020    -6.1288     2.5935 H       
  26 H26           -1.6049    -5.3251     4.1525 H       
  27 H27            2.0924     5.3583    -0.3892 H       
  28 H28            2.4757     0.4632     0.0831 H       
  29 H29            5.2270     1.6025     0.9736 H       
  30 H30            4.8298     0.6582    -0.4820 H       
  31 H31            5.5984     2.2559    -0.6399 H       
  32 H32            3.8003     6.0713    -1.3650 H       
  33 H33            3.8148     6.2398     0.4069 H       
  34 H34            5.3363     6.3515    -0.5101 H       
@<TRIPOS>BOND
   1    1    2 am
   2    1   11 1
   3    1   21 1
   4    2    3 2
   5    2    4 am
   6    4    6 1
   7    4   22 1
   8    5    6 1
   9    5    9 1
  10    6    7 2
  11    7    8 1
  12    8    9 2
  13    8   23 1
  14    9   10 1
  15   10   24 1
  16   10   25 1
  17   10   26 1
  18   11   12 ar
  19   11   16 ar
  20   12   13 ar
  21   12   20 1
  22   13   14 ar
  23   13   27 1
  24   14   15 ar
  25   14   18 1
  26   15   16 ar
  27   15   17 1
  28   16   28 1
  29   17   29 1
  30   17   30 1
  31   17   31 1
  32   18   19 1
  33   19   32 1
  34   19   33 1
  35   19   34 1

#	End of record

