#	Name: ASD00069087
#	Creating user name:	WinNT
#	Creation time:	15. 06. 2019 18:29

#	Modifying user name:	WinNT
#	Modification time:	15. 06. 2019 18:29

#	Program:	/corina/corina34_cracker 3.40 0067  02.08.2006

@<TRIPOS>MOLECULE
ASD00069087
  55   60    0    0    0
SMALL
NO_CHARGES


@<TRIPOS>ATOM
   1 N1            -0.0162     1.3436     0.0094 N.am    
   2 C2            -1.0452     1.7875    -0.7393 C.2     
   3 O3            -0.9495     2.8396    -1.3413 O.2     
   4 N4            -2.1801     1.0653    -0.8208 N.am    
   5 C5            -3.2986     1.5479    -1.6347 C.3     
   6 C6            -4.2815     0.5063    -2.1732 C.3     
   7 C7            -4.7036     1.4417    -1.0384 C.3     
   8 N8             4.6331     4.3260     0.0226 N.pl3   
   9 N9             4.0847     5.6089    -0.0715 N.2     
  10 C10            2.7743     5.5331    -0.1187 C.2     
  11 C11            2.4114     4.1122    -0.0526 C.ar    
  12 C12            1.1971     3.4224    -0.0604 C.ar    
  13 C13            1.1978     2.0432     0.0171 C.ar    
  14 C14            2.4017     1.3441     0.1035 C.ar    
  15 C15            3.5942     2.0081     0.1128 C.ar    
  16 C16            3.6200     3.3989     0.0352 C.ar    
  17 C17            6.0639     4.0189     0.0906 C.3     
  18 C18            6.6905     4.1958    -1.2950 C.3     
  19 C19            8.1965     3.9316    -1.2032 C.3     
  20 C20            8.8072     4.8768    -0.1640 C.3     
  21 C21            8.0989     4.6735     1.1779 C.3     
  22 O22            6.6981     4.9047     1.0154 O.3     
  23 C23            1.8375     6.6692    -0.2198 C.2     
  24 N24            2.2020     7.9881    -0.2805 N.pl3   
  25 C25            1.0391     8.7298    -0.3679 C.ar    
  26 C26           -0.0191     7.8035    -0.3565 C.ar    
  27 N27            0.5307     6.5677    -0.2706 N.2     
  28 C28           -1.3372     8.2645    -0.4341 C.ar    
  29 C29           -1.5846     9.6156    -0.5205 C.ar    
  30 C30           -0.5367    10.5248    -0.5318 C.ar    
  31 C31            0.7693    10.0878    -0.4552 C.ar    
  32 H32           -0.1173     0.5419     0.5461 H       
  33 H33           -2.2565     0.2260    -0.3406 H       
  34 H34           -3.0832     2.4101    -2.2657 H       
  35 H35           -4.7130     0.6835    -3.1583 H       
  36 H36           -4.0960    -0.5380    -1.9219 H       
  37 H37           -4.7958     1.0128    -0.0406 H       
  38 H38           -5.4128     2.2343    -1.2770 H       
  39 H39            0.2646     3.9631    -0.1267 H       
  40 H40            2.3901     0.2659     0.1640 H       
  41 H41            4.5191     1.4545     0.1808 H       
  42 H42            6.1993     2.9893     0.4220 H       
  43 H43            6.2387     3.4900    -1.9919 H       
  44 H44            6.5200     5.2141    -1.6445 H       
  45 H45            8.3677     2.8983    -0.9014 H       
  46 H46            8.6579     4.1104    -2.1744 H       
  47 H47            9.8692     4.6580    -0.0521 H       
  48 H48            8.6795     5.9088    -0.4907 H       
  49 H49            8.2611     3.6526     1.5236 H       
  50 H50            8.5003     5.3737     1.9105 H       
  51 H51            3.1072     8.3365    -0.2645 H       
  52 H52           -2.1580     7.5627    -0.4265 H       
  53 H53           -2.6028     9.9709    -0.5803 H       
  54 H54           -0.7451    11.5823    -0.6003 H       
  55 H55            1.5801    10.8011    -0.4643 H       
@<TRIPOS>BOND
   1    1    2 am
   2    1   13 1
   3    1   32 1
   4    2    3 2
   5    2    4 am
   6    4    5 1
   7    4   33 1
   8    5    6 1
   9    5    7 1
  10    5   34 1
  11    6    7 1
  12    6   35 1
  13    6   36 1
  14    7   37 1
  15    7   38 1
  16    8    9 1
  17    8   16 1
  18    8   17 1
  19    9   10 2
  20   10   11 1
  21   10   23 1
  22   11   12 ar
  23   11   16 ar
  24   12   13 ar
  25   12   39 1
  26   13   14 ar
  27   14   15 ar
  28   14   40 1
  29   15   16 ar
  30   15   41 1
  31   17   18 1
  32   17   22 1
  33   17   42 1
  34   18   19 1
  35   18   43 1
  36   18   44 1
  37   19   20 1
  38   19   45 1
  39   19   46 1
  40   20   21 1
  41   20   47 1
  42   20   48 1
  43   21   22 1
  44   21   49 1
  45   21   50 1
  46   23   24 1
  47   23   27 2
  48   24   25 1
  49   24   51 1
  50   25   26 ar
  51   25   31 ar
  52   26   27 1
  53   26   28 ar
  54   28   29 ar
  55   28   52 1
  56   29   30 ar
  57   29   53 1
  58   30   31 ar
  59   30   54 1
  60   31   55 1

#	End of record

