#	Name: ASD09380020
#	Creating user name:	WinNT
#	Creation time:	15. 06. 2019 21:22

#	Modifying user name:	WinNT
#	Modification time:	15. 06. 2019 21:22

#	Program:	/corina/corina34_cracker 3.40 0067  02.08.2006

@<TRIPOS>MOLECULE
ASD09380020
  63   67    0    0    0
SMALL
NO_CHARGES


@<TRIPOS>ATOM
   1 C1            -0.9589     1.0353    -0.0015 C.2     
   2 C2            -0.7296    -0.4539     0.0252 C.3     
   3 C3             0.7710    -0.7405    -0.0576 C.3     
   4 O4            -0.0185     1.7900    -0.0789 O.2     
   5 O5            -2.2081     1.5232     0.0550 O.3     
   6 C6            -1.4388    -1.1006    -1.1663 C.3     
   7 C7             1.4803    -0.0938     1.1339 C.3     
   8 C8             2.9972    -0.2676     1.2324 C.3     
   9 C9             2.4062     1.0901     0.8474 C.3     
  10 C10            3.0138    -6.1080    -1.9560 C.3     
  11 C11            1.9405    -6.9976    -1.3155 C.3     
  12 C12            1.6423    -6.4583     0.0856 C.3     
  13 C13            1.4253    -4.9678     0.0205 C.ar    
  14 C14            1.8467    -4.2244    -1.0684 C.ar    
  15 O15            2.4684    -4.7996    -2.1305 O.3     
  16 C16            1.6324    -2.8501    -1.0893 C.ar    
  17 C17            1.0003    -2.2297    -0.0309 C.ar    
  18 C18            0.5780    -2.9751     1.0541 C.ar    
  19 C19            0.7902    -4.3400     1.0787 C.ar    
  20 C20            3.4109    -6.6753    -3.2944 C.ar    
  21 C21            4.5916    -7.3883    -3.4191 C.ar    
  22 N22            2.6286    -6.4954    -4.3445 N.ar    
  23 N23            4.9438    -7.8871    -4.5892 N.ar    
  24 C24            4.1633    -7.7044    -5.6497 C.ar    
  25 C25            2.9727    -6.9906    -5.5189 C.ar    
  26 C26            5.4762    -7.5946    -2.2166 C.3     
  27 C27            4.1528    -8.6201    -9.3032 C.ar    
  28 C28            3.7481    -8.0813    -8.0906 C.ar    
  29 C29            4.5550    -8.2633    -6.9671 C.ar    
  30 C30            5.7443    -8.9868    -7.1158 C.ar    
  31 C31            6.0733    -9.4899    -8.3578 C.ar    
  32 N32            5.2849    -9.2972    -9.3986 N.ar    
  33 O33            3.3750    -8.4557   -10.4030 O.3     
  34 C34            3.8452    -9.0336   -11.6224 C.3     
  35 Cl35           6.7914    -9.2470    -5.7558 Cl      
  36 H36           -1.1276    -0.8662     0.9524 H       
  37 H37            1.1690    -0.3282    -0.9848 H       
  38 H38           -2.3050     2.4851     0.0349 H       
  39 H39           -2.5079    -0.8964    -1.1073 H       
  40 H40           -1.0409    -0.6883    -2.0935 H       
  41 H41           -1.2730    -2.1777    -1.1469 H       
  42 H42            0.9141    -0.0765     2.0652 H       
  43 H43            3.4290    -0.3643     2.2286 H       
  44 H44            3.4898    -0.8427     0.4484 H       
  45 H45            2.5100     1.4082    -0.1900 H       
  46 H46            2.4492     1.8866     1.5902 H       
  47 H47            3.8862    -6.0582    -1.3043 H       
  48 H48            1.0337    -6.9720    -1.9197 H       
  49 H49            2.3066    -8.0219    -1.2447 H       
  50 H50            0.7450    -6.9388     0.4757 H       
  51 H51            2.4838    -6.6739     0.7439 H       
  52 H52            1.9622    -2.2667    -1.9362 H       
  53 H53            0.0826    -2.4906     1.8824 H       
  54 H54            0.4595    -4.9201     1.9275 H       
  55 H55            2.3330    -6.8435    -6.3766 H       
  56 H56            5.1219    -8.4546    -1.6482 H       
  57 H57            6.5001    -7.7729    -2.5450 H       
  58 H58            5.4462    -6.7055    -1.5867 H       
  59 H59            2.8230    -7.5288    -8.0176 H       
  60 H60            6.9892   -10.0491    -8.4800 H       
  61 H61            4.8121    -8.6014   -11.8802 H       
  62 H62            3.9508   -10.1112   -11.4968 H       
  63 H63            3.1315    -8.8290   -12.4204 H       
@<TRIPOS>BOND
   1    1    2 1
   2    1    4 2
   3    1    5 1
   4    2    6 1
   5    2    3 1
   6    2   36 1
   7    3    7 1
   8    3   17 1
   9    3   37 1
  10    5   38 1
  11    6   39 1
  12    6   40 1
  13    6   41 1
  14    7    8 1
  15    7    9 1
  16    7   42 1
  17    8    9 1
  18    8   43 1
  19    8   44 1
  20    9   45 1
  21    9   46 1
  22   10   11 1
  23   10   15 1
  24   10   20 1
  25   10   47 1
  26   11   12 1
  27   11   48 1
  28   11   49 1
  29   12   13 1
  30   12   50 1
  31   12   51 1
  32   13   14 ar
  33   13   19 ar
  34   14   15 1
  35   14   16 ar
  36   16   17 ar
  37   16   52 1
  38   17   18 ar
  39   18   19 ar
  40   18   53 1
  41   19   54 1
  42   20   21 ar
  43   20   22 ar
  44   21   23 ar
  45   21   26 1
  46   22   25 ar
  47   23   24 ar
  48   24   25 ar
  49   24   29 1
  50   25   55 1
  51   26   56 1
  52   26   57 1
  53   26   58 1
  54   27   28 ar
  55   27   32 ar
  56   27   33 1
  57   28   29 ar
  58   28   59 1
  59   29   30 ar
  60   30   31 ar
  61   30   35 1
  62   31   32 ar
  63   31   60 1
  64   33   34 1
  65   34   61 1
  66   34   62 1
  67   34   63 1

#	End of record

