#	Name: ASD01940696
#	Creating user name:	WinNT
#	Creation time:	15. 06. 2019 20:13

#	Modifying user name:	WinNT
#	Modification time:	15. 06. 2019 20:13

#	Program:	/corina/corina34_cracker 3.40 0067  02.08.2006

@<TRIPOS>MOLECULE
ASD01940696
  42   44    0    0    0
SMALL
NO_CHARGES


@<TRIPOS>ATOM
   1 C1             0.4743     0.4146    -1.4832 C.ar    
   2 C2             0.0109    -0.2126    -0.3414 C.ar    
   3 C3             0.6406    -0.0011     0.8733 C.ar    
   4 C4             1.7388     0.8405     0.9501 C.ar    
   5 C5             2.2087     1.4730    -0.1932 C.ar    
   6 C6             1.5729     1.2584    -1.4150 C.ar    
   7 N7             2.0430     1.8937    -2.5721 N.am    
   8 S8             0.9745     2.3938    -3.7343 S.o2    
   9 C9             0.0126     3.7051    -2.9307 C.3     
  10 O10            1.7982     2.9355    -4.7578 O.2     
  11 O11            0.1603     1.2545    -3.9754 O.2     
  12 F12            0.1834    -0.6161     1.9859 F       
  13 F13            2.3516     1.0457     2.1365 F       
  14 N14            3.3190     2.3253    -0.1190 N.pl3   
  15 C15            4.5845     1.8577    -0.4838 C.ar    
  16 C16            5.6972     2.6807    -0.3485 C.ar    
  17 C17            4.7344     0.5681    -0.9768 C.ar    
  18 C18            5.9866     0.1087    -1.3366 C.ar    
  19 C19            7.0909     0.9311    -1.2060 C.ar    
  20 C20            6.9466     2.2149    -0.7102 C.ar    
  21 Cl21           5.5165     4.2914     0.2734 Cl      
  22 I22            8.9876     0.2287    -1.7519 I       
  23 C23           -1.1131     4.1814    -3.8655 C.3     
  24 C24           -2.4416     3.9056    -3.1315 C.3     
  25 C25           -2.0474     3.8667    -1.6341 C.3     
  26 C26           -0.6712     3.1565    -1.6613 C.3     
  27 H27           -0.0168     0.2437    -2.4298 H       
  28 H28           -0.8450    -0.8689    -0.3972 H       
  29 H29            2.9942     2.0406    -2.6924 H       
  30 H30            0.6632     4.5410    -2.6736 H       
  31 H31            3.2091     3.2396     0.1856 H       
  32 H32            3.8729    -0.0752    -1.0785 H       
  33 H33            6.1034    -0.8942    -1.7200 H       
  34 H34            7.8108     2.8548    -0.6098 H       
  35 H35           -1.0092     5.2486    -4.0613 H       
  36 H36           -1.0813     3.6246    -4.8020 H       
  37 H37           -3.1542     4.7092    -3.3176 H       
  38 H38           -2.8569     2.9468    -3.4417 H       
  39 H39           -1.9534     4.8759    -1.2331 H       
  40 H40           -2.7699     3.2872    -1.0594 H       
  41 H41           -0.8006     2.0767    -1.7341 H       
  42 H42           -0.0918     3.4134    -0.7745 H       
@<TRIPOS>BOND
   1    1    2 ar
   2    1    6 ar
   3    1   27 1
   4    2    3 ar
   5    2   28 1
   6    3    4 ar
   7    3   12 1
   8    4    5 ar
   9    4   13 1
  10    5    6 ar
  11    5   14 1
  12    6    7 1
  13    7    8 am
  14    7   29 1
  15    8    9 1
  16    8   10 2
  17    8   11 2
  18    9   23 1
  19    9   26 1
  20    9   30 1
  21   14   15 1
  22   14   31 1
  23   15   16 ar
  24   15   17 ar
  25   16   21 1
  26   16   20 ar
  27   17   18 ar
  28   17   32 1
  29   18   19 ar
  30   18   33 1
  31   19   20 ar
  32   19   22 1
  33   20   34 1
  34   23   24 1
  35   23   35 1
  36   23   36 1
  37   24   25 1
  38   24   37 1
  39   24   38 1
  40   25   26 1
  41   25   39 1
  42   25   40 1
  43   26   41 1
  44   26   42 1

#	End of record

