#	Name: ASD07930326
#	Creating user name:	WinNT
#	Creation time:	15. 06. 2019 21:12

#	Modifying user name:	WinNT
#	Modification time:	15. 06. 2019 21:12

#	Program:	/corina/corina34_cracker 3.40 0067  02.08.2006

@<TRIPOS>MOLECULE
ASD07930326
  31   32    0    0    0
SMALL
NO_CHARGES


@<TRIPOS>ATOM
   1 N1            -0.0178     1.4624     0.0101 N.pl3   
   2 C2             0.0021    -0.0041     0.0020 C.3     
   3 C3             0.7733    -0.5065     1.2304 C.3     
   4 S4             2.4363     0.2339     1.2028 S.o2    
   5 N5             2.1138     1.8519     0.9691 N.am    
   6 C6             1.1691     2.1662     0.0025 C.2     
   7 C7            -1.4107    -0.5268     0.0464 C.ar    
   8 C8            -2.2938    -0.1993    -0.9682 C.ar    
   9 N9             1.3955     3.0951    -0.8833 N.2     
  10 C10            2.7940     2.8912     1.7459 C.3     
  11 O11            3.0376     0.1712     2.4887 O.2     
  12 O12            3.1450    -0.1615     0.0363 O.2     
  13 C13            0.6911    -0.4987    -1.2714 C.3     
  14 N14           -1.7902    -1.2954     1.0483 N.ar    
  15 C15           -3.0164    -1.7760     1.1285 C.ar    
  16 C16           -3.9551    -1.4877     0.1544 C.ar    
  17 C17           -3.5929    -0.6869    -0.9172 C.ar    
  18 Br18          -3.4959    -2.8728     2.5924 Br      
  19 F19           -1.8969     0.5849    -1.9942 F       
  20 H20           -0.8639     1.9368     0.0167 H       
  21 H21            0.2524    -0.2060     2.1395 H       
  22 H22            0.8541    -1.5929     1.1945 H       
  23 H23            0.7237     3.3018    -1.5519 H       
  24 H24            3.7043     3.1942     1.2285 H       
  25 H25            2.1349     3.7523     1.8561 H       
  26 H26            3.0490     2.5003     2.7309 H       
  27 H27            1.7134    -0.1216    -1.3012 H       
  28 H28            0.7056    -1.5886    -1.2767 H       
  29 H29            0.1453    -0.1383    -2.1433 H       
  30 H30           -4.9569    -1.8848     0.2261 H       
  31 H31           -4.3050    -0.4453    -1.6924 H       
@<TRIPOS>BOND
   1    1    2 1
   2    1    6 1
   3    1   20 1
   4    2    3 1
   5    2    7 1
   6    2   13 1
   7    3    4 1
   8    3   21 1
   9    3   22 1
  10    4    5 am
  11    4   11 2
  12    4   12 2
  13    5    6 1
  14    5   10 1
  15    6    9 2
  16    7   14 ar
  17    7    8 ar
  18    8   19 1
  19    8   17 ar
  20    9   23 1
  21   10   24 1
  22   10   25 1
  23   10   26 1
  24   13   27 1
  25   13   28 1
  26   13   29 1
  27   14   15 ar
  28   15   16 ar
  29   15   18 1
  30   16   17 ar
  31   16   30 1
  32   17   31 1

#	End of record

