#	Name: ASD02270002
#	Creating user name:	WinNT
#	Creation time:	15. 06. 2019 20:20

#	Modifying user name:	WinNT
#	Modification time:	15. 06. 2019 20:20

#	Program:	/corina/corina34_cracker 3.40 0067  02.08.2006

@<TRIPOS>MOLECULE
ASD02270002
  61   65    0    0    0
SMALL
NO_CHARGES


@<TRIPOS>ATOM
   1 C1            -0.0167     1.3820     0.0096 C.ar    
   2 C2             0.0021    -0.0041     0.0020 C.ar    
   3 C3             1.2102    -0.6755    -0.0131 C.ar    
   4 C4             2.4012     0.0309    -0.0202 C.ar    
   5 C5             2.3916     1.4123    -0.0127 C.ar    
   6 C6             1.1847     2.0941     0.0020 C.ar    
   7 N7             0.8508     3.4467     0.0123 N.am    
   8 C8            -0.4913     3.5521     0.0252 C.2     
   9 N9            -1.0428     2.3239     0.0189 N.am    
  10 O10           -1.1119     4.5988     0.0365 O.2     
  11 C11            1.7986     4.5638     0.0101 C.3     
  12 C12            1.5685     5.4276    -1.2331 C.3     
  13 C13            1.5852     5.4185     1.2625 C.3     
  14 C14            2.5360     6.6170     1.2244 C.3     
  15 N15            2.2755     7.4118     0.0173 N.3     
  16 C16            2.5197     6.6259    -1.1988 C.3     
  17 C17            3.0740     8.6449     0.0165 C.3     
  18 C18            2.9700     9.3189    -1.3530 C.3     
  19 N19            1.5596     9.5361    -1.6846 N.am    
  20 C20            1.1774     9.6320    -2.9735 C.2     
  21 C21           -0.2734     9.8553    -3.3145 C.3     
  22 O22            2.0010     9.5385    -3.8588 O.2     
  23 Br23           1.2367    -2.5663    -0.0235 Br      
  24 C24           -0.6437     9.9554    -4.7957 C.3     
  25 C25           -1.0239     8.7086    -3.9946 C.3     
  26 C26            3.6981    10.6640    -1.3161 C.3     
  27 C27           -1.7516    10.9045    -5.1733 C.ar    
  28 C28           -1.5006    11.9488    -6.0436 C.ar    
  29 C29           -2.5169    12.8194    -6.3901 C.ar    
  30 C30           -3.7844    12.6455    -5.8665 C.ar    
  31 C31           -4.0357    11.6007    -4.9969 C.ar    
  32 C32           -3.0204    10.7275    -4.6539 C.ar    
  33 H33           -0.9250    -0.5580     0.0083 H       
  34 H34            3.3415    -0.5002    -0.0314 H       
  35 H35            3.3224     1.9600    -0.0180 H       
  36 H36           -1.9928     2.1282     0.0256 H       
  37 H37            2.8176     4.1769     0.0013 H       
  38 H38            1.7606     4.8359    -2.1281 H       
  39 H39            0.5376     5.7816    -1.2445 H       
  40 H40            0.5546     5.7722     1.2903 H       
  41 H41            1.7893     4.8202     2.1505 H       
  42 H42            2.3765     7.2353     2.1077 H       
  43 H43            3.5667     6.2627     1.2105 H       
  44 H44            3.5505     6.2715    -1.2014 H       
  45 H45            2.3485     7.2507    -2.0755 H       
  46 H46            2.6982     9.3216     0.7840 H       
  47 H47            4.1163     8.4029     0.2242 H       
  48 H48            3.4265     8.6793    -2.1084 H       
  49 H49            0.9009     9.6108    -0.9765 H       
  50 H50           -0.8310    10.4762    -2.6133 H       
  51 H51            0.1622     9.8601    -5.5234 H       
  52 H52           -0.4683     7.7926    -4.1954 H       
  53 H53           -2.0755     8.5747    -3.7409 H       
  54 H54            4.7475    10.5025    -1.0694 H       
  55 H55            3.6240    11.1442    -2.2918 H       
  56 H56            3.2416    11.3037    -0.5607 H       
  57 H57           -0.5103    12.0846    -6.4527 H       
  58 H58           -2.3205    13.6356    -7.0695 H       
  59 H59           -4.5782    13.3261    -6.1366 H       
  60 H60           -5.0259    11.4651    -4.5876 H       
  61 H61           -3.2176     9.9091    -3.9774 H       
@<TRIPOS>BOND
   1    1    2 ar
   2    1    6 ar
   3    1    9 1
   4    2    3 ar
   5    2   33 1
   6    3    4 ar
   7    3   23 1
   8    4    5 ar
   9    4   34 1
  10    5    6 ar
  11    5   35 1
  12    6    7 1
  13    7    8 am
  14    7   11 1
  15    8    9 am
  16    8   10 2
  17    9   36 1
  18   11   12 1
  19   11   13 1
  20   11   37 1
  21   12   16 1
  22   12   38 1
  23   12   39 1
  24   13   14 1
  25   13   40 1
  26   13   41 1
  27   14   15 1
  28   14   42 1
  29   14   43 1
  30   15   16 1
  31   15   17 1
  32   16   44 1
  33   16   45 1
  34   17   18 1
  35   17   46 1
  36   17   47 1
  37   18   26 1
  38   18   19 1
  39   18   48 1
  40   19   20 am
  41   19   49 1
  42   20   21 1
  43   20   22 2
  44   21   24 1
  45   21   25 1
  46   21   50 1
  47   24   27 1
  48   24   25 1
  49   24   51 1
  50   25   52 1
  51   25   53 1
  52   26   54 1
  53   26   55 1
  54   26   56 1
  55   27   28 ar
  56   27   32 ar
  57   28   29 ar
  58   28   57 1
  59   29   30 ar
  60   29   58 1
  61   30   31 ar
  62   30   59 1
  63   31   32 ar
  64   31   60 1
  65   32   61 1

#	End of record

