#	Name: ASD01840267
#	Creating user name:	WinNT
#	Creation time:	15. 06. 2019 19:37

#	Modifying user name:	WinNT
#	Modification time:	15. 06. 2019 19:37

#	Program:	/corina/corina34_cracker 3.40 0067  02.08.2006

@<TRIPOS>MOLECULE
ASD01840267
  46   49    0    0    0
SMALL
NO_CHARGES


@<TRIPOS>ATOM
   1 C1             1.7187     1.2820     0.2338 C.3     
   2 C2             1.2770    -0.1568     0.1586 C.ar    
   3 N3             1.3876    -0.8222    -0.9778 N.ar    
   4 N4             1.0291    -2.0455    -1.0998 N.ar    
   5 C5             0.5149    -2.7425    -0.0844 C.ar    
   6 S6            -0.0418    -4.4063    -0.0084 S.3     
   7 C7            -0.4827    -4.2708     1.6871 C.2     
   8 C8            -1.0311    -5.0293     2.7530 C.2     
   9 N9            -1.4402    -6.3668     2.6798 N.pl3   
  10 C10           -1.9918    -7.0300     3.8640 C.3     
  11 C11           -2.3513    -8.4527     3.5212 C.ar    
  12 C12           -3.6141    -8.7502     3.0445 C.ar    
  13 C13           -3.9449   -10.0548     2.7294 C.ar    
  14 C14           -3.0107   -11.0636     2.8914 C.ar    
  15 F15           -3.3328   -12.3389     2.5833 F       
  16 C16           -1.7459   -10.7643     3.3691 C.ar    
  17 C17           -1.4158    -9.4587     3.6785 C.ar    
  18 S18           -0.5558   -12.0470     3.5765 S.o2    
  19 C19           -1.2520   -13.1047     4.8754 C.3     
  20 O20           -0.5521   -12.7267     2.3286 O.2     
  21 O21            0.6043   -11.3758     4.0485 O.2     
  22 N22           -1.0903    -4.2696     3.8149 N.2     
  23 N23           -0.5921    -3.0035     3.4963 N.pl3   
  24 C24           -0.4865    -1.8631     4.4099 C.3     
  25 C25           -0.2162    -3.0181     2.1641 C.2     
  26 C26            0.3584    -2.1252     1.1581 C.ar    
  27 C27            0.7633    -0.7784     1.2771 C.ar    
  28 C28            0.6337    -0.0409     2.5850 C.3     
  29 H29            2.7704     1.3248     0.5171 H       
  30 H30            1.5850     1.7545    -0.7393 H       
  31 H31            1.1203     1.8074     0.9781 H       
  32 H32           -1.3584    -6.8541     1.8451 H       
  33 H33           -1.2494    -7.0250     4.6621 H       
  34 H34           -2.8845    -6.4992     4.1949 H       
  35 H35           -4.3428    -7.9631     2.9185 H       
  36 H36           -4.9318   -10.2870     2.3572 H       
  37 H37           -0.4281    -9.2245     4.0472 H       
  38 H38           -2.2167   -13.4935     4.5492 H       
  39 H39           -0.5731   -13.9348     5.0708 H       
  40 H40           -1.3847   -12.5215     5.7866 H       
  41 H41            0.5266    -1.8094     4.8084 H       
  42 H42           -0.7142    -0.9435     3.8709 H       
  43 H43           -1.1935    -1.9880     5.2301 H       
  44 H44           -0.3850     0.3317     2.6925 H       
  45 H45            0.8616    -0.7182     3.4081 H       
  46 H46            1.3306     0.7970     2.6002 H       
@<TRIPOS>BOND
   1    1    2 1
   2    1   29 1
   3    1   30 1
   4    1   31 1
   5    2   27 ar
   6    2    3 ar
   7    3    4 ar
   8    4    5 ar
   9    5   26 ar
  10    5    6 1
  11    6    7 1
  12    7   25 2
  13    7    8 1
  14    8    9 1
  15    8   22 2
  16    9   10 1
  17    9   32 1
  18   10   11 1
  19   10   33 1
  20   10   34 1
  21   11   17 ar
  22   11   12 ar
  23   12   13 ar
  24   12   35 1
  25   13   14 ar
  26   13   36 1
  27   14   15 1
  28   14   16 ar
  29   16   17 ar
  30   16   18 1
  31   17   37 1
  32   18   19 1
  33   18   20 2
  34   18   21 2
  35   19   38 1
  36   19   39 1
  37   19   40 1
  38   22   23 1
  39   23   24 1
  40   23   25 1
  41   24   41 1
  42   24   42 1
  43   24   43 1
  44   25   26 1
  45   26   27 ar
  46   27   28 1
  47   28   44 1
  48   28   45 1
  49   28   46 1

#	End of record

