#	Name: ASD01208061
#	Creating user name:	WinNT
#	Creation time:	15. 06. 2019 19:09

#	Modifying user name:	WinNT
#	Modification time:	15. 06. 2019 19:09

#	Program:	/corina/corina34_cracker 3.40 0067  02.08.2006

@<TRIPOS>MOLECULE
ASD01208061
  64   68    0    0    0
SMALL
NO_CHARGES


@<TRIPOS>ATOM
   1 C1             0.0144     1.3382     0.2928 C.ar    
   2 C2             0.1575    -0.0379     0.1906 C.ar    
   3 C3            -0.9629    -0.8570     0.1743 C.ar    
   4 C4            -2.2292    -0.3031     0.2606 C.ar    
   5 C5            -2.3778     1.0810     0.3640 C.ar    
   6 C6            -1.2482     1.9003     0.3849 C.ar    
   7 C7            -3.7269     1.6766     0.4558 C.2     
   8 C8            -4.0062     3.0089     0.5599 C.2     
   9 N9            -4.9106     0.9858     0.4450 N.pl3   
  10 C10           -5.9420     1.8871     0.5488 C.2     
  11 C11           -5.3952     3.1496     0.6212 C.2     
  12 O12            1.1148     2.1355     0.3083 O.3     
  13 C13            0.8934     3.5472     0.2960 C.3     
  14 C14            2.1171     4.2503    -0.2949 C.3     
  15 O15            3.2417     4.0515     0.5641 O.3     
  16 C16            0.6633     4.0399     1.7261 C.3     
  17 O17           -0.8171    -2.2043     0.0731 O.3     
  18 C18           -1.2737    -2.8111    -1.0490 C.ar    
  19 C19           -1.2395    -4.1994    -1.1405 C.ar    
  20 N20           -1.7513    -2.0748    -2.0408 N.ar    
  21 C21           -2.2067    -2.6174    -3.1506 C.ar    
  22 C22           -2.2011    -4.0025    -3.3191 C.ar    
  23 C23           -1.7062    -4.8115    -2.2853 C.ar    
  24 C24           -7.3761     1.5621     0.5742 C.2     
  25 C25            4.4433     4.6711     0.1012 C.3     
  26 N26           -8.3475     2.4282     0.6733 N.2     
  27 C27           -9.5713     1.9521     0.6800 C.2     
  28 C28           -9.6810     0.6231     0.5838 C.2     
  29 S29           -8.0596    -0.0582     0.4683 S.3     
  30 C30           -2.7133    -4.6077    -4.5642 C.2     
  31 N31           -2.8546    -5.9450    -4.6549 N.am    
  32 O32           -3.0077    -3.8999    -5.5079 O.2     
  33 C33           -3.3646    -6.8902    -5.6596 C.3     
  34 C34           -3.6995    -7.8489    -4.5087 C.3     
  35 C35           -2.5607    -7.1016    -3.7955 C.3     
  36 C36           -0.6981    -5.0249    -0.0018 C.3     
  37 H37            1.1436    -0.4732     0.1232 H       
  38 H38           -3.1006    -0.9410     0.2475 H       
  39 H39           -1.3586     2.9716     0.4651 H       
  40 H40           -3.2831     3.8106     0.5899 H       
  41 H41           -5.0042     0.0228     0.3754 H       
  42 H42           -5.9401     4.0779     0.7092 H       
  43 H43            0.0166     3.7722    -0.3113 H       
  44 H44            2.3341     3.8358    -1.2794 H       
  45 H45            1.9140     5.3173    -0.3867 H       
  46 H46            1.5401     3.8149     2.3334 H       
  47 H47            0.4944     5.1167     1.7167 H       
  48 H48           -0.2085     3.5390     2.1471 H       
  49 H49           -2.5886    -1.9843    -3.9379 H       
  50 H50           -1.6879    -5.8868    -2.3847 H       
  51 H51            4.2885     5.7469     0.0177 H       
  52 H52            5.2493     4.4738     0.8079 H       
  53 H53            4.7086     4.2654    -0.8750 H       
  54 H54          -10.4359     2.5945     0.7589 H       
  55 H55          -10.6046     0.0634     0.5743 H       
  56 H56           -4.2438    -6.5262    -6.1912 H       
  57 H57           -2.5932    -7.2693    -6.3299 H       
  58 H58           -4.6848    -7.6929    -4.0694 H       
  59 H59           -3.4806    -8.8955    -4.7207 H       
  60 H60           -1.5777    -7.5387    -3.9713 H       
  61 H61           -2.7575    -6.9164    -2.7395 H       
  62 H62           -1.5082    -5.2742     0.6835 H       
  63 H63           -0.2592    -5.9421    -0.3946 H       
  64 H64            0.0647    -4.4554     0.5291 H       
@<TRIPOS>BOND
   1    1    2 ar
   2    1   12 1
   3    1    6 ar
   4    2    3 ar
   5    2   37 1
   6    3    4 ar
   7    3   17 1
   8    4    5 ar
   9    4   38 1
  10    5    6 ar
  11    5    7 1
  12    6   39 1
  13    7    8 2
  14    7    9 1
  15    8   11 1
  16    8   40 1
  17    9   10 1
  18    9   41 1
  19   10   11 2
  20   10   24 1
  21   11   42 1
  22   12   13 1
  23   13   14 1
  24   13   16 1
  25   13   43 1
  26   14   15 1
  27   14   44 1
  28   14   45 1
  29   15   25 1
  30   16   46 1
  31   16   47 1
  32   16   48 1
  33   17   18 1
  34   18   19 ar
  35   18   20 ar
  36   19   36 1
  37   19   23 ar
  38   20   21 ar
  39   21   22 ar
  40   21   49 1
  41   22   23 ar
  42   22   30 1
  43   23   50 1
  44   24   26 2
  45   24   29 1
  46   25   51 1
  47   25   52 1
  48   25   53 1
  49   26   27 1
  50   27   28 2
  51   27   54 1
  52   28   29 1
  53   28   55 1
  54   30   31 am
  55   30   32 2
  56   31   33 1
  57   31   35 1
  58   33   34 1
  59   33   56 1
  60   33   57 1
  61   34   35 1
  62   34   58 1
  63   34   59 1
  64   35   60 1
  65   35   61 1
  66   36   62 1
  67   36   63 1
  68   36   64 1

#	End of record

