#	Name: ASD03080132
#	Creating user name:	WinNT
#	Creation time:	15. 06. 2019 20:26

#	Modifying user name:	WinNT
#	Modification time:	15. 06. 2019 20:26

#	Program:	/corina/corina34_cracker 3.40 0067  02.08.2006

@<TRIPOS>MOLECULE
ASD03080132
  30   32    0    0    0
SMALL
NO_CHARGES


@<TRIPOS>ATOM
   1 C1            -0.0789     1.7040     0.2685 C.3     
   2 C2            -0.0497     0.1760     0.1012 C.3     
   3 C3             1.3484     2.2498     0.2765 C.3     
   4 N4             2.3241     1.1661     0.0898 N.3     
   5 C5             2.2081     0.2372     1.1542 C.2     
   6 C6             0.8510    -0.3673     1.2127 C.2     
   7 C7             4.8608     1.1762     0.6086 C.ar    
   8 C8             4.5626     0.4721     1.7853 C.ar    
   9 C9             3.2135    -0.0643     2.0146 C.2     
  10 C10            6.1460     1.6594     0.4426 C.ar    
  11 C11            7.0876     1.4358     1.4315 C.ar    
  12 N12            6.7804     0.7705     2.5291 N.ar    
  13 C13            5.5730     0.2895     2.7363 C.ar    
  14 C14            0.6749    -0.1222    -1.2233 C.3     
  15 C15            2.0809     0.4761    -1.1867 C.3     
  16 O16            0.5020    -1.1873     2.0370 O.2     
  17 H17           -0.6324     2.1487    -0.5586 H       
  18 H18           -0.5689     1.9565     1.2088 H       
  19 H19           -1.0501    -0.2562     0.1255 H       
  20 H20            1.4594     2.9750    -0.5296 H       
  21 H21            1.5383     2.7429     1.2299 H       
  22 H22            4.1077     1.3328    -0.1494 H       
  23 H23            3.0223    -0.6983     2.8677 H       
  24 H24            6.4121     2.2056    -0.4503 H       
  25 H25            8.0916     1.8123     1.3029 H       
  26 H26            5.3601    -0.2501     3.6473 H       
  27 H27            0.7433    -1.2008    -1.3645 H       
  28 H28            0.1155     0.3165    -2.0495 H       
  29 H29            2.1890     1.1878    -2.0052 H       
  30 H30            2.8133    -0.3221    -1.3078 H       
@<TRIPOS>BOND
   1    1    2 1
   2    1    3 1
   3    1   17 1
   4    1   18 1
   5    2   14 1
   6    2    6 1
   7    2   19 1
   8    3    4 1
   9    3   20 1
  10    3   21 1
  11    4    5 1
  12    4   15 1
  13    5    6 1
  14    5    9 2
  15    6   16 2
  16    7    8 ar
  17    7   10 ar
  18    7   22 1
  19    8    9 1
  20    8   13 ar
  21    9   23 1
  22   10   11 ar
  23   10   24 1
  24   11   12 ar
  25   11   25 1
  26   12   13 ar
  27   13   26 1
  28   14   15 1
  29   14   27 1
  30   14   28 1
  31   15   29 1
  32   15   30 1

#	End of record

