#	Name: ASD02198638
#	Creating user name:	WinNT
#	Creation time:	15. 06. 2019 20:19

#	Modifying user name:	WinNT
#	Modification time:	15. 06. 2019 20:19

#	Program:	/corina/corina34_cracker 3.40 0067  02.08.2006

@<TRIPOS>MOLECULE
ASD02198638
  54   58    0    0    0
SMALL
NO_CHARGES


@<TRIPOS>ATOM
   1 C1             0.0066     1.5062     0.1349 C.2     
   2 C2             0.0731     0.1661    -0.0929 C.2     
   3 N3            -1.0538    -0.5634    -0.2632 N.pl3   
   4 N4            -2.2315    -0.0592    -0.2233 N.2     
   5 C5            -2.4385     1.2236    -0.0105 C.2     
   6 C6            -1.2795     2.1039     0.1932 C.2     
   7 C7            -0.9270    -1.9373    -0.4949 C.ar    
   8 C8            -1.5119    -2.5104    -1.6172 C.ar    
   9 C9            -1.3829    -3.8756    -1.8426 C.ar    
  10 C10           -0.6706    -4.6612    -0.9462 C.ar    
  11 C11           -0.0899    -4.0871     0.1694 C.ar    
  12 C12           -0.2107    -2.7299     0.3944 C.ar    
  13 C13           -3.8114     1.7674     0.0279 C.2     
  14 N14           -4.3741     2.4803     1.0489 N.pl3   
  15 N15           -5.6854     2.7993     0.6746 N.2     
  16 C16           -5.9149     2.3064    -0.5163 C.2     
  17 C17           -4.7637     1.6563    -0.9613 C.2     
  18 C18           -3.7512     2.8289     2.2541 C.ar    
  19 C19           -3.9208     4.1020     2.7822 C.ar    
  20 C20           -3.3053     4.4426     3.9708 C.ar    
  21 C21           -2.5205     3.5176     4.6346 C.ar    
  22 C22           -2.3493     2.2492     4.1110 C.ar    
  23 C23           -2.9675     1.9003     2.9263 C.ar    
  24 O24           -1.4168     3.3018     0.3948 O.2     
  25 O25            1.1343     2.2468     0.3067 O.3     
  26 C26            2.3823     1.5541     0.2367 C.3     
  27 F27           -2.2046    -1.7427    -2.4867 F       
  28 N28           -1.9702    -4.4576    -2.9705 N.3     
  29 C29           -0.9453    -5.1008    -3.8324 C.3     
  30 C30           -2.8743    -5.5716    -2.5851 C.3     
  31 C31           -3.0047    -6.4269    -3.8637 C.3     
  32 C32           -1.7356    -6.1172    -4.6842 C.3     
  33 F33           -3.0518    -7.7862    -3.5362 F       
  34 F34           -4.1485    -6.0587    -4.5801 F       
  35 F35           -2.0800    -5.5538    -5.9176 F       
  36 F36           -0.9834    -7.2814    -4.8737 F       
  37 H37            1.0362    -0.3205    -0.1387 H       
  38 H38           -0.5702    -5.7223    -1.1206 H       
  39 H39            0.4632    -4.7011     0.8647 H       
  40 H40            0.2446    -2.2853     1.2669 H       
  41 H41           -6.8408     2.3928    -1.0654 H       
  42 H42           -4.6430     1.1508    -1.9080 H       
  43 H43           -4.5331     4.8251     2.2639 H       
  44 H44           -3.4368     5.4325     4.3820 H       
  45 H45           -2.0399     3.7865     5.5636 H       
  46 H46           -1.7354     1.5291     4.6316 H       
  47 H47           -2.8337     0.9094     2.5181 H       
  48 H48            2.4845     1.0878    -0.7432 H       
  49 H49            3.1986     2.2599     0.3901 H       
  50 H50            2.4155     0.7864     1.0097 H       
  51 H51           -0.4669    -4.3593    -4.4722 H       
  52 H52           -0.2022    -5.6133    -3.2215 H       
  53 H53           -2.4330    -6.1577    -1.7790 H       
  54 H54           -3.8483    -5.1845    -2.2857 H       
@<TRIPOS>BOND
   1    1    2 2
   2    1   25 1
   3    1    6 1
   4    2    3 1
   5    2   37 1
   6    3    4 1
   7    3    7 1
   8    4    5 2
   9    5    6 1
  10    5   13 1
  11    6   24 2
  12    7    8 ar
  13    7   12 ar
  14    8    9 ar
  15    8   27 1
  16    9   10 ar
  17    9   28 1
  18   10   11 ar
  19   10   38 1
  20   11   12 ar
  21   11   39 1
  22   12   40 1
  23   13   14 1
  24   13   17 2
  25   14   15 1
  26   14   18 1
  27   15   16 2
  28   16   17 1
  29   16   41 1
  30   17   42 1
  31   18   19 ar
  32   18   23 ar
  33   19   20 ar
  34   19   43 1
  35   20   21 ar
  36   20   44 1
  37   21   22 ar
  38   21   45 1
  39   22   23 ar
  40   22   46 1
  41   23   47 1
  42   25   26 1
  43   26   48 1
  44   26   49 1
  45   26   50 1
  46   28   29 1
  47   28   30 1
  48   29   32 1
  49   29   51 1
  50   29   52 1
  51   30   31 1
  52   30   53 1
  53   30   54 1
  54   31   32 1
  55   31   33 1
  56   31   34 1
  57   32   35 1
  58   32   36 1

#	End of record

