#	Name: ASD00170872
#	Creating user name:	WinNT
#	Creation time:	15. 06. 2019 18:32

#	Modifying user name:	WinNT
#	Modification time:	15. 06. 2019 18:32

#	Program:	/corina/corina34_cracker 3.40 0067  02.08.2006

@<TRIPOS>MOLECULE
ASD00170872
  52   55    0    0    0
SMALL
NO_CHARGES


@<TRIPOS>ATOM
   1 C1             1.0352     0.1086    -1.3763 C.2     
   2 N2             0.4833    -0.1398    -0.1749 N.am    
   3 C3             1.2828     0.2817     0.8215 C.2     
   4 C4             2.4998     0.8757     0.2296 C.ar    
   5 C5             3.6441     1.4585     0.7502 C.ar    
   6 C6             4.6264     1.9294    -0.1070 C.ar    
   7 C7             4.4720     1.8215    -1.4765 C.ar    
   8 C8             3.3326     1.2413    -2.0118 C.ar    
   9 C9             2.3424     0.7657    -1.1672 C.ar    
  10 O10            0.5439    -0.1659    -2.4524 O.2     
  11 O11            1.0445     0.1895     2.0087 O.2     
  12 C12           -0.7493    -0.7507     0.0121 C.2     
  13 C13           -0.9500    -2.1084     0.0524 C.2     
  14 C14           -2.3368    -2.4632     0.2607 C.2     
  15 C15           -3.1338    -1.4103     0.3705 C.2     
  16 S16           -2.2207     0.0814     0.2305 S.3     
  17 C17           -2.8258    -3.8863     0.3437 C.3     
  18 N18           -2.8131    -4.4875    -0.9965 N.3     
  19 C19           -3.0205    -5.9399    -0.9240 C.3     
  20 C20           -2.6212    -6.5792    -2.2555 C.3     
  21 C21           -3.8139    -3.8555    -1.8665 C.3     
  22 C22           -5.2026    -4.0117    -1.2435 C.3     
  23 C23            0.1250    -3.0922    -0.0997 C.2     
  24 C24            0.8465    -3.5889     1.0914 C.ar    
  25 C25            1.8332    -4.5674     0.9557 C.ar    
  26 C26            2.5027    -5.0267     2.0703 C.ar    
  27 C27            2.1980    -4.5194     3.3227 C.ar    
  28 C28            1.2201    -3.5485     3.4636 C.ar    
  29 C29            0.5478    -3.0772     2.3557 C.ar    
  30 O30            0.4241    -3.5007    -1.2068 O.2     
  31 Cl31           3.0447    -5.1030     4.7213 Cl      
  32 H32            3.7700     1.5458     1.8193 H       
  33 H33            5.5184     2.3841     0.2979 H       
  34 H34            5.2445     2.1922    -2.1340 H       
  35 H35            3.2172     1.1604    -3.0826 H       
  36 H36           -4.2008    -1.4631     0.5287 H       
  37 H37           -2.1728    -4.4569     1.0041 H       
  38 H38           -3.8420    -3.8988     0.7379 H       
  39 H39           -2.4080    -6.3549    -0.1236 H       
  40 H40           -4.0714    -6.1472    -0.7221 H       
  41 H41           -1.5555    -6.4271    -2.4264 H       
  42 H42           -2.8353    -7.6476    -2.2242 H       
  43 H43           -3.1884    -6.1185    -3.0643 H       
  44 H44           -3.5823    -2.7962    -1.9770 H       
  45 H45           -3.7989    -4.3348    -2.8454 H       
  46 H46           -5.2242    -3.5131    -0.2745 H       
  47 H47           -5.9479    -3.5626    -1.8999 H       
  48 H48           -5.4249    -5.0707    -1.1123 H       
  49 H49            2.0714    -4.9640    -0.0202 H       
  50 H50            3.2658    -5.7838     1.9666 H       
  51 H51            0.9866    -3.1569     4.4426 H       
  52 H52           -0.2113    -2.3170     2.4662 H       
@<TRIPOS>BOND
   1    1    2 am
   2    1    9 1
   3    1   10 2
   4    2    3 am
   5    2   12 1
   6    3    4 1
   7    3   11 2
   8    4    5 ar
   9    4    9 ar
  10    5    6 ar
  11    5   32 1
  12    6    7 ar
  13    6   33 1
  14    7    8 ar
  15    7   34 1
  16    8    9 ar
  17    8   35 1
  18   12   13 2
  19   12   16 1
  20   13   14 1
  21   13   23 1
  22   14   15 2
  23   14   17 1
  24   15   16 1
  25   15   36 1
  26   17   18 1
  27   17   37 1
  28   17   38 1
  29   18   19 1
  30   18   21 1
  31   19   20 1
  32   19   39 1
  33   19   40 1
  34   20   41 1
  35   20   42 1
  36   20   43 1
  37   21   22 1
  38   21   44 1
  39   21   45 1
  40   22   46 1
  41   22   47 1
  42   22   48 1
  43   23   24 1
  44   23   30 2
  45   24   25 ar
  46   24   29 ar
  47   25   26 ar
  48   25   49 1
  49   26   27 ar
  50   26   50 1
  51   27   28 ar
  52   27   31 1
  53   28   29 ar
  54   28   51 1
  55   29   52 1

#	End of record

