#	Name: ASD00843621
#	Creating user name:	WinNT
#	Creation time:	15. 06. 2019 18:47

#	Modifying user name:	WinNT
#	Modification time:	15. 06. 2019 18:47

#	Program:	/corina/corina34_cracker 3.40 0067  02.08.2006

@<TRIPOS>MOLECULE
ASD00843621
  97  102    0    0    0
SMALL
NO_CHARGES


@<TRIPOS>ATOM
   1 F1             5.6100    -2.3577    -2.1921 F       
   2 N2             0.7513     1.1466    -0.6360 N.ar    
   3 C3             0.9602    -0.1436    -0.8379 C.ar    
   4 C4             0.8546    -1.0502     0.2094 C.ar    
   5 C5             0.5272    -0.5859     1.4712 C.ar    
   6 C6             0.3159     0.7756     1.6416 C.ar    
   7 C7             0.4378     1.6190     0.5556 C.ar    
   8 C8             1.0930    -2.5195    -0.0255 C.3     
   9 C9             0.7878    -3.3132     1.2269 C.2     
  10 C10            0.2438    -3.0184    -1.1964 C.3     
  11 C11           -1.2033    -2.6785    -0.9481 C.2     
  12 N12           -2.1496    -3.0847    -1.8175 N.am    
  13 O13           -1.5162    -2.0395     0.0340 O.2     
  14 C14           -3.5474    -2.6624    -1.6538 C.3     
  15 C15           -4.4400    -3.9073    -1.6384 C.3     
  16 C16           -4.1768    -4.7344    -2.8989 C.3     
  17 C17           -2.7153    -5.1881    -2.9174 C.3     
  18 C18           -1.8022    -3.9532    -2.9505 C.3     
  19 N19           -5.0550    -5.9120    -2.9038 N.3     
  20 C20           -4.9153    -6.6679    -4.1562 C.3     
  21 C21           -5.7842    -7.9261    -4.0892 C.3     
  22 N22           -7.1841    -7.5400    -3.8637 N.3     
  23 C23           -7.3238    -6.7841    -2.6112 C.3     
  24 C24           -6.4549    -5.5259    -2.6783 C.3     
  25 C25           -8.0623    -8.7176    -3.8686 C.3     
  26 O26           -0.2840    -3.3867     1.7899 O.2     
  27 N27            1.9272    -3.9213     1.5976 N.am    
  28 C28            2.5591    -2.7839    -0.2806 C.ar    
  29 C29            2.9858    -3.6315     0.7341 C.ar    
  30 C30            3.4305    -2.3571    -1.2575 C.ar    
  31 C31            4.7517    -2.7738    -1.2353 C.ar    
  32 C32            5.1897    -3.6197    -0.2276 C.ar    
  33 C33            4.3149    -4.0478     0.7524 C.ar    
  34 F34            6.4776    -4.0272    -0.2041 F       
  35 C35            1.6988    -6.5437     2.4009 C.ar    
  36 C36            0.4272    -6.8613     1.9454 C.ar    
  37 C37            2.6831    -7.5131     2.4377 C.ar    
  38 C38            2.4039    -8.8004     2.0210 C.ar    
  39 C39            1.1335    -9.1231     1.5646 C.ar    
  40 C40            0.1445    -8.1527     1.5271 C.ar    
  41 O41            0.8594   -10.3896     1.1552 O.3     
  42 O42           -0.5403    -5.9077     1.9099 O.3     
  43 C43            1.9262   -11.3381     1.2217 C.3     
  44 C44           -1.8260    -6.3056     1.4294 C.3     
  45 C45           -2.7762    -5.1069     1.4627 C.3     
  46 C46           -9.4579    -8.3150    -3.3879 C.3     
  47 O47            1.2801    -0.5862    -2.0799 O.3     
  48 C48            1.2832     0.3806    -3.1323 C.3     
  49 C49            1.7665    -0.2763    -4.4268 C.3     
  50 F50            3.0256    -0.8489    -4.2174 F       
  51 F51            0.8604    -1.2702    -4.8119 F       
  52 S52            2.0610    -4.9011     2.9258 S.o2    
  53 O53            3.4331    -4.8913     3.2952 O.2     
  54 O54            1.0152    -4.5229     3.8105 O.2     
  55 H55            0.4378    -1.2673     2.3044 H       
  56 H56            0.0586     1.1706     2.6133 H       
  57 H57            0.2748     2.6791     0.6829 H       
  58 H58            0.5768    -2.5390    -2.1170 H       
  59 H59            0.3524    -4.0989    -1.2896 H       
  60 H60           -3.6580    -2.1218    -0.7138 H       
  61 H61           -3.8339    -2.0175    -2.4845 H       
  62 H62           -4.2137    -4.5063    -0.7564 H       
  63 H63           -5.4867    -3.6041    -1.6142 H       
  64 H64           -4.3796    -4.1268    -3.7808 H       
  65 H65           -2.5053    -5.7751    -2.0233 H       
  66 H66           -2.5345    -5.7966    -3.8035 H       
  67 H67           -1.9478    -3.4160    -3.8877 H       
  68 H68           -0.7615    -4.2658    -2.8640 H       
  69 H69           -5.2371    -6.0479    -4.9930 H       
  70 H70           -3.8724    -6.9531    -4.2945 H       
  71 H71           -5.7047    -8.4734    -5.0284 H       
  72 H72           -5.4450    -8.5590    -3.2692 H       
  73 H73           -8.3667    -6.4989    -2.4730 H       
  74 H74           -7.0020    -7.4041    -1.7745 H       
  75 H75           -6.5344    -4.9786    -1.7390 H       
  76 H76           -6.7941    -4.8930    -3.4982 H       
  77 H77           -8.1278    -9.1178    -4.8803 H       
  78 H78           -7.6541    -9.4780    -3.2028 H       
  79 H79            3.0844    -1.6985    -2.0404 H       
  80 H80            4.6626    -4.7064     1.5347 H       
  81 H81            3.6722    -7.2639     2.7925 H       
  82 H82            3.1749    -9.5560     2.0500 H       
  83 H83           -0.8448    -8.4020     1.1726 H       
  84 H84            2.7522   -11.0003     0.5958 H       
  85 H85            2.2662   -11.4308     2.2531 H       
  86 H86            1.5739   -12.3066     0.8668 H       
  87 H87           -1.7349    -6.6688     0.4057 H       
  88 H88           -2.2207    -7.0999     2.0630 H       
  89 H89           -3.7569    -5.4104     1.0962 H       
  90 H90           -2.8673    -4.7438     2.4864 H       
  91 H91           -2.3814    -4.3126     0.8292 H       
  92 H92           -9.3924    -7.9148    -2.3762 H       
  93 H93           -9.8662    -7.5546    -4.0537 H       
  94 H94          -10.1095    -9.1888    -3.3915 H       
  95 H95            0.2735     0.7655    -3.2751 H       
  96 H96            1.9511     1.2011    -2.8699 H       
  97 H97            1.8357     0.4763    -5.2123 H       
@<TRIPOS>BOND
   1    1   31 1
   2    2    3 ar
   3    2    7 ar
   4    3    4 ar
   5    3   47 1
   6    4    5 ar
   7    4    8 1
   8    5    6 ar
   9    5   55 1
  10    6    7 ar
  11    6   56 1
  12    7   57 1
  13    8    9 1
  14    8   10 1
  15    8   28 1
  16    9   26 2
  17    9   27 am
  18   10   11 1
  19   10   58 1
  20   10   59 1
  21   11   12 am
  22   11   13 2
  23   12   14 1
  24   12   18 1
  25   14   15 1
  26   14   60 1
  27   14   61 1
  28   15   16 1
  29   15   62 1
  30   15   63 1
  31   16   17 1
  32   16   19 1
  33   16   64 1
  34   17   18 1
  35   17   65 1
  36   17   66 1
  37   18   67 1
  38   18   68 1
  39   19   20 1
  40   19   24 1
  41   20   21 1
  42   20   69 1
  43   20   70 1
  44   21   22 1
  45   21   71 1
  46   21   72 1
  47   22   23 1
  48   22   25 1
  49   23   24 1
  50   23   73 1
  51   23   74 1
  52   24   75 1
  53   24   76 1
  54   25   46 1
  55   25   77 1
  56   25   78 1
  57   27   52 am
  58   27   29 1
  59   28   29 ar
  60   28   30 ar
  61   29   33 ar
  62   30   31 ar
  63   30   79 1
  64   31   32 ar
  65   32   33 ar
  66   32   34 1
  67   33   80 1
  68   35   36 ar
  69   35   37 ar
  70   35   52 1
  71   36   42 1
  72   36   40 ar
  73   37   38 ar
  74   37   81 1
  75   38   39 ar
  76   38   82 1
  77   39   40 ar
  78   39   41 1
  79   40   83 1
  80   41   43 1
  81   42   44 1
  82   43   84 1
  83   43   85 1
  84   43   86 1
  85   44   45 1
  86   44   87 1
  87   44   88 1
  88   45   89 1
  89   45   90 1
  90   45   91 1
  91   46   92 1
  92   46   93 1
  93   46   94 1
  94   47   48 1
  95   48   49 1
  96   48   95 1
  97   48   96 1
  98   49   50 1
  99   49   51 1
 100   49   97 1
 101   52   53 2
 102   52   54 2

#	End of record

