#	Name: ASD01148318
#	Creating user name:	WinNT
#	Creation time:	15. 06. 2019 19:02

#	Modifying user name:	WinNT
#	Modification time:	15. 06. 2019 19:02

#	Program:	/corina/corina34_cracker 3.40 0067  02.08.2006

@<TRIPOS>MOLECULE
ASD01148318
  55   58    0    0    0
SMALL
NO_CHARGES


@<TRIPOS>ATOM
   1 C1            -0.0167     1.3793     0.0096 C.ar    
   2 C2             0.0021    -0.0041     0.0020 C.ar    
   3 C3            -1.1869    -0.7115     0.0095 C.ar    
   4 C4            -2.3926    -0.0360     0.0246 C.ar    
   5 C5            -2.4107     1.3463     0.0322 C.ar    
   6 C6            -1.2230     2.0537     0.0305 C.ar    
   7 C7            -3.7257     2.0823     0.0482 C.3     
   8 O8            -4.7306     1.3282     0.7560 O.3     
   9 C9            -3.6316     3.3658     0.9073 C.3     
  10 C10           -4.1229     2.8923     2.2621 C.2     
  11 N11           -4.7174     1.7576     2.1030 N.2     
  12 C12           -3.9502     3.6062     3.5425 C.ar    
  13 C13           -4.4544     3.0551     4.7233 C.ar    
  14 C14           -3.2777     4.8305     3.5747 C.ar    
  15 C15           -3.1168     5.4962     4.7688 C.ar    
  16 C16           -3.6260     4.9477     5.9483 C.ar    
  17 C17           -4.2933     3.7210     5.9172 C.ar    
  18 C18           -3.4527     5.6624     7.2304 C.2     
  19 O19           -2.8672     6.7273     7.2584 O.2     
  20 N20           -3.9439     5.1333     8.3685 N.am    
  21 C21           -4.1855     2.4070    -1.3745 C.3     
  22 F22           -4.3278     1.2200    -2.1010 F       
  23 F23           -5.4141     3.0746    -1.3265 F       
  24 F24           -3.2351     3.2236    -1.9968 F       
  25 Cl25           1.5169    -0.8519    -0.0175 Cl      
  26 C26           -3.7722     5.8416     9.6394 C.3     
  27 C27           -4.4074     5.0438    10.7489 C.ar    
  28 N28           -5.6967     5.1763    10.9911 N.ar    
  29 C29           -6.2951     4.4988    11.9515 C.ar    
  30 C30           -5.5839     3.6187    12.7445 C.ar    
  31 C31           -4.2256     3.4528    12.5196 C.ar    
  32 C32           -3.6327     4.1775    11.4973 C.ar    
  33 C33           -1.1673    -2.2184     0.0007 C.3     
  34 F34           -2.4801    -2.7018     0.0107 F       
  35 F35           -0.5129    -2.6695    -1.1505 F       
  36 F36           -0.4908    -2.6826     1.1339 F       
  37 C37            1.2779     2.1506     0.0014 C.3     
  38 F38            1.0035     3.5224     0.0114 F       
  39 F39            2.0270     1.8166     1.1348 F       
  40 F40            2.0051     1.8289    -1.1496 F       
  41 H41           -3.3208    -0.5881     0.0301 H       
  42 H42           -1.2377     3.1336     0.0364 H       
  43 H43           -2.6009     3.7149     0.9698 H       
  44 H44           -4.2820     4.1454     0.5107 H       
  45 H45           -4.9707     2.1068     4.6992 H       
  46 H46           -2.8837     5.2544     2.6628 H       
  47 H47           -2.5967     6.4423     4.7937 H       
  48 H48           -4.6869     3.2971     6.8293 H       
  49 H49           -4.4111     4.2835     8.3462 H       
  50 H50           -2.7091     5.9671     9.8446 H       
  51 H51           -4.2482     6.8202     9.5770 H       
  52 H52           -7.3533     4.6337    12.1202 H       
  53 H53           -6.0795     3.0673    13.5299 H       
  54 H54           -3.6442     2.7722    13.1240 H       
  55 H55           -2.5773     4.0730    11.2938 H       
@<TRIPOS>BOND
   1    1    2 ar
   2    1   37 1
   3    1    6 ar
   4    2    3 ar
   5    2   25 1
   6    3    4 ar
   7    3   33 1
   8    4    5 ar
   9    4   41 1
  10    5    6 ar
  11    5    7 1
  12    6   42 1
  13    7    8 1
  14    7    9 1
  15    7   21 1
  16    8   11 1
  17    9   10 1
  18    9   43 1
  19    9   44 1
  20   10   11 2
  21   10   12 1
  22   12   13 ar
  23   12   14 ar
  24   13   17 ar
  25   13   45 1
  26   14   15 ar
  27   14   46 1
  28   15   16 ar
  29   15   47 1
  30   16   17 ar
  31   16   18 1
  32   17   48 1
  33   18   19 2
  34   18   20 am
  35   20   26 1
  36   20   49 1
  37   21   22 1
  38   21   23 1
  39   21   24 1
  40   26   27 1
  41   26   50 1
  42   26   51 1
  43   27   28 ar
  44   27   32 ar
  45   28   29 ar
  46   29   30 ar
  47   29   52 1
  48   30   31 ar
  49   30   53 1
  50   31   32 ar
  51   31   54 1
  52   32   55 1
  53   33   34 1
  54   33   35 1
  55   33   36 1
  56   37   38 1
  57   37   39 1
  58   37   40 1

#	End of record

