#	Name: ASD01150696
#	Creating user name:	WinNT
#	Creation time:	15. 06. 2019 19:04

#	Modifying user name:	WinNT
#	Modification time:	15. 06. 2019 19:04

#	Program:	/corina/corina34_cracker 3.40 0067  02.08.2006

@<TRIPOS>MOLECULE
ASD01150696
  36   39    0    0    0
SMALL
NO_CHARGES


@<TRIPOS>ATOM
   1 C1            -0.0503     1.2667     0.0179 C.2     
   2 O2            -0.5705     1.0097    -1.0476 O.2     
   3 C3             3.7039     3.1925     0.1138 C.ar    
   4 C4             3.6886     1.7963     0.2106 C.ar    
   5 C5             2.4365     1.1291     0.1805 C.ar    
   6 C6             1.2687     1.9055     0.0546 C.ar    
   7 C7             1.3881     3.2993    -0.0357 C.ar    
   8 N8             2.5616     3.8781    -0.0042 N.ar    
   9 C9             5.0256     1.2441     0.3313 C.2     
  10 C10            5.9960     2.1367     0.3283 C.2     
  11 S11            5.3682     3.7652     0.1680 S.3     
  12 C12            2.3603    -0.3445     0.2785 C.ar    
  13 C13            2.7660    -0.9913     1.4471 C.ar    
  14 C14            2.6923    -2.3662     1.5319 C.ar    
  15 C15            2.2179    -3.1040     0.4618 C.ar    
  16 C16            1.8146    -2.4691    -0.6995 C.ar    
  17 C17            1.8768    -1.0943    -0.7950 C.ar    
  18 C18            0.1472     4.1436    -0.1714 C.3     
  19 C19           -0.7629     0.9348     1.3037 C.3     
  20 C20           -2.2905     0.8589     1.2655 C.3     
  21 C21           -1.4638    -0.4222     1.3930 C.3     
  22 H22            5.2112     0.1836     0.4172 H       
  23 H23            7.0454     1.8946     0.4099 H       
  24 H24            3.1372    -0.4166     2.2828 H       
  25 H25            3.0059    -2.8678     2.4355 H       
  26 H26            2.1626    -4.1802     0.5333 H       
  27 H27            1.4456    -3.0509    -1.5313 H       
  28 H28            1.5571    -0.5996    -1.7003 H       
  29 H29           -0.2687     4.3396     0.8169 H       
  30 H30            0.4012     5.0881    -0.6525 H       
  31 H31           -0.5883     3.6138    -0.7766 H       
  32 H32           -0.3008     1.3237     2.2111 H       
  33 H33           -2.8334     1.1974     2.1480 H       
  34 H34           -2.7801     1.0489     0.3104 H       
  35 H35           -1.4096    -1.0750     0.5218 H       
  36 H36           -1.4628    -0.9265     2.3594 H       
@<TRIPOS>BOND
   1    1    2 2
   2    1    6 1
   3    1   19 1
   4    3    4 ar
   5    3    8 ar
   6    3   11 1
   7    4    5 ar
   8    4    9 1
   9    5    6 ar
  10    5   12 1
  11    6    7 ar
  12    7    8 ar
  13    7   18 1
  14    9   10 2
  15    9   22 1
  16   10   11 1
  17   10   23 1
  18   12   13 ar
  19   12   17 ar
  20   13   14 ar
  21   13   24 1
  22   14   15 ar
  23   14   25 1
  24   15   16 ar
  25   15   26 1
  26   16   17 ar
  27   16   27 1
  28   17   28 1
  29   18   29 1
  30   18   30 1
  31   18   31 1
  32   19   20 1
  33   19   21 1
  34   19   32 1
  35   20   21 1
  36   20   33 1
  37   20   34 1
  38   21   35 1
  39   21   36 1

#	End of record

