#	Name: ASD01884701
#	Creating user name:	WinNT
#	Creation time:	15. 06. 2019 19:48

#	Modifying user name:	WinNT
#	Modification time:	15. 06. 2019 19:48

#	Program:	/corina/corina34_cracker 3.40 0067  02.08.2006

@<TRIPOS>MOLECULE
ASD01884701
  47   48    0    0    0
SMALL
NO_CHARGES


@<TRIPOS>ATOM
   1 C1            -0.0168     1.3867     0.0097 C.2     
   2 C2             0.0021    -0.0041     0.0020 C.2     
   3 C3            -1.2209    -0.6973     0.0099 C.2     
   4 C4            -2.4115    -0.0060     0.0245 C.2     
   5 N5            -2.4460     1.3401     0.0320 N.am    
   6 C6            -1.3127     2.0676     0.0318 C.2     
   7 O7            -1.3656     3.2853     0.0395 O.2     
   8 C8            -3.7405     2.0260     0.0470 C.3     
   9 C9             1.2038     2.1355     0.0020 C.1     
  10 N10            2.1720     2.7296    -0.0040 N.1     
  11 C11           -4.1785     2.2570     1.4947 C.3     
  12 C12           -5.5304     2.9732     1.5104 C.3     
  13 C13           -6.0273     3.0932     2.9524 C.3     
  14 C14           -5.3743     4.3705     0.9069 C.3     
  15 C15           -1.2287    -2.1804     0.0020 C.ar    
  16 N16           -2.3841    -2.8324     0.0095 N.ar    
  17 C17           -2.4341    -4.1494     0.0025 C.ar    
  18 C18           -1.2760    -4.9034    -0.0130 C.ar    
  19 C19           -0.0453    -4.2612    -0.0213 C.ar    
  20 C20           -0.0221    -2.8778    -0.0190 C.ar    
  21 C21           -1.3485    -6.4087    -0.0204 C.3     
  22 C22           -1.3874    -6.9103    -1.4653 C.3     
  23 C23           -1.4610    -8.4385    -1.4728 C.3     
  24 O24           -1.4972    -8.9070    -2.8224 O.3     
  25 H25            0.9388    -0.5414    -0.0101 H       
  26 H26           -3.3405    -0.5568     0.0297 H       
  27 H27           -3.6494     2.9853    -0.4624 H       
  28 H28           -4.4827     1.4124    -0.4636 H       
  29 H29           -4.2697     1.2977     2.0042 H       
  30 H30           -3.4363     2.8705     2.0054 H       
  31 H31           -6.2507     2.4027     0.9241 H       
  32 H32           -5.3070     3.6638     3.5387 H       
  33 H33           -6.9905     3.6035     2.9636 H       
  34 H34           -6.1386     2.0978     3.3824 H       
  35 H35           -5.0203     4.2851    -0.1205 H       
  36 H36           -6.3374     4.8808     0.9180 H       
  37 H37           -4.6540     4.9411     1.4931 H       
  38 H38           -3.3931    -4.6461     0.0093 H       
  39 H39            0.8735    -4.8287    -0.0332 H       
  40 H40            0.9178    -2.3459    -0.0252 H       
  41 H41           -0.4720    -6.8171     0.4825 H       
  42 H42           -2.2498    -6.7316     0.5006 H       
  43 H43           -2.2639    -6.5019    -1.9683 H       
  44 H44           -0.4861    -6.5874    -1.9864 H       
  45 H45           -0.5844    -8.8470    -0.9699 H       
  46 H46           -2.3623    -8.7614    -0.9518 H       
  47 H47           -1.5444    -9.8695    -2.9034 H       
@<TRIPOS>BOND
   1    1    2 2
   2    1    9 1
   3    1    6 1
   4    2    3 1
   5    2   25 1
   6    3    4 2
   7    3   15 1
   8    4    5 1
   9    4   26 1
  10    5    8 1
  11    5    6 am
  12    6    7 2
  13    8   11 1
  14    8   27 1
  15    8   28 1
  16    9   10 3
  17   11   12 1
  18   11   29 1
  19   11   30 1
  20   12   13 1
  21   12   14 1
  22   12   31 1
  23   13   32 1
  24   13   33 1
  25   13   34 1
  26   14   35 1
  27   14   36 1
  28   14   37 1
  29   15   16 ar
  30   15   20 ar
  31   16   17 ar
  32   17   18 ar
  33   17   38 1
  34   18   19 ar
  35   18   21 1
  36   19   20 ar
  37   19   39 1
  38   20   40 1
  39   21   22 1
  40   21   41 1
  41   21   42 1
  42   22   23 1
  43   22   43 1
  44   22   44 1
  45   23   24 1
  46   23   45 1
  47   23   46 1
  48   24   47 1

#	End of record

