#	Name: ASD01914198
#	Creating user name:	WinNT
#	Creation time:	15. 06. 2019 20:03

#	Modifying user name:	WinNT
#	Modification time:	15. 06. 2019 20:03

#	Program:	/corina/corina34_cracker 3.40 0067  02.08.2006

@<TRIPOS>MOLECULE
ASD01914198
  40   41    0    0    0
SMALL
NO_CHARGES


@<TRIPOS>ATOM
   1 C1            -0.0163     1.3748     0.0069 C.ar    
   2 C2             0.9234     1.6182     0.9931 C.ar    
   3 C3             2.1265     0.9356     0.9849 C.ar    
   4 C4             2.3894     0.0107    -0.0083 C.ar    
   5 C5             1.4506    -0.2316    -0.9934 C.ar    
   6 C6             0.2477     0.4500    -0.9855 C.ar    
   7 S7            -1.5520     2.2385     0.0207 S.o2    
   8 O8            -2.3805     1.5689     0.9611 O.2     
   9 O9            -1.2343     3.6206     0.1103 O.2     
  10 N10           -2.2533     2.0152    -1.4628 N.am    
  11 C11           -3.0538     0.8158    -1.7215 C.3     
  12 C12           -2.0732     3.0170    -2.5164 C.3     
  13 C13           -0.9035     2.6084    -3.4141 C.3     
  14 C14           -0.7225     3.6150    -4.4728 C.1     
  15 C15           -0.5782     4.4178    -5.3171 C.1     
  16 C16           -0.4022     5.3970    -6.3471 C.ar    
  17 C17            0.6127     5.2344    -7.2909 C.ar    
  18 C18            0.7699     6.1891    -8.2797 C.ar    
  19 C19           -0.0925     7.2769    -8.2941 C.ar    
  20 C20           -1.0767     7.3756    -7.3280 C.ar    
  21 N21           -1.2094     6.4502    -6.3999 N.ar    
  22 C22           -2.0143     8.5554    -7.3404 C.3     
  23 F23           -3.1346     8.2526    -8.1217 F       
  24 Cl24           0.5928     2.7802     2.2397 Cl      
  25 H25            2.8605     1.1254     1.7541 H       
  26 H26            3.3287    -0.5223    -0.0149 H       
  27 H27            1.6567    -0.9538    -1.7696 H       
  28 H28           -0.4857     0.2600    -1.7552 H       
  29 H29           -4.0761     0.9809    -1.3812 H       
  30 H30           -3.0565     0.6044    -2.7908 H       
  31 H31           -2.6245    -0.0303    -1.1849 H       
  32 H32           -2.9829     3.0843    -3.1131 H       
  33 H33           -1.8628     3.9862    -2.0642 H       
  34 H34            0.0062     2.5411    -2.8174 H       
  35 H35           -1.1139     1.6392    -3.8663 H       
  36 H36            1.2663     4.3756    -7.2498 H       
  37 H37            1.5466     6.0906    -9.0236 H       
  38 H38            0.0048     8.0393    -9.0528 H       
  39 H39           -2.3313     8.7782    -6.3216 H       
  40 H40           -1.5025     9.4218    -7.7594 H       
@<TRIPOS>BOND
   1    1    2 ar
   2    1    6 ar
   3    1    7 1
   4    2    3 ar
   5    2   24 1
   6    3    4 ar
   7    3   25 1
   8    4    5 ar
   9    4   26 1
  10    5    6 ar
  11    5   27 1
  12    6   28 1
  13    7    8 2
  14    7    9 2
  15    7   10 am
  16   10   11 1
  17   10   12 1
  18   11   29 1
  19   11   30 1
  20   11   31 1
  21   12   13 1
  22   12   32 1
  23   12   33 1
  24   13   14 1
  25   13   34 1
  26   13   35 1
  27   14   15 3
  28   15   16 1
  29   16   17 ar
  30   16   21 ar
  31   17   18 ar
  32   17   36 1
  33   18   19 ar
  34   18   37 1
  35   19   20 ar
  36   19   38 1
  37   20   21 ar
  38   20   22 1
  39   22   23 1
  40   22   39 1
  41   22   40 1

#	End of record

