#	Name: ASD01152562
#	Creating user name:	WinNT
#	Creation time:	15. 06. 2019 19:06

#	Modifying user name:	WinNT
#	Modification time:	15. 06. 2019 19:06

#	Program:	/corina/corina34_cracker 3.40 0067  02.08.2006

@<TRIPOS>MOLECULE
ASD01152562
  57   59    0    0    0
SMALL
NO_CHARGES


@<TRIPOS>ATOM
   1 C1             0.1114     1.1571    -0.6959 C.2     
   2 N2             0.0189    -0.1436    -0.6175 N.2     
   3 N3            -1.1205    -0.7661    -0.1080 N.am    
   4 C4            -2.2615    -0.0993     0.1330 C.2     
   5 C5            -2.3924     1.3536    -0.2592 C.3     
   6 C6            -1.0084     1.9736    -0.2035 C.2     
   7 C7            -2.9557     1.4586    -1.6778 C.3     
   8 O8            -0.8358     3.0970     0.2224 O.2     
   9 C9            -1.0734    -2.1389     0.1623 C.ar    
  10 O10           -3.1907    -0.6664     0.6673 O.2     
  11 C11           -3.1985     2.9070    -2.0160 C.ar    
  12 C12           -0.0101    -2.6693     0.8797 C.ar    
  13 C13           -2.0939    -2.9703    -0.2824 C.ar    
  14 C14           -2.0490    -4.3251    -0.0160 C.ar    
  15 C15           -0.9884    -4.8582     0.6946 C.ar    
  16 C16            0.0334    -4.0297     1.1463 C.ar    
  17 C17           -2.1984     3.6545    -2.6056 C.ar    
  18 C18           -4.4246     3.4845    -1.7405 C.ar    
  19 C19           -4.6517     4.8129    -2.0495 C.ar    
  20 C20           -2.4231     4.9897    -2.9170 C.ar    
  21 C21           -3.6538     5.5679    -2.6343 C.ar    
  22 F22           -0.9477    -6.1834     0.9543 F       
  23 N23           -1.4135     5.7489    -3.5131 N.3     
  24 C24           -0.2221     5.8064    -2.6556 C.3     
  25 C25           -1.0789     5.2269    -4.8448 C.3     
  26 O26            1.2212     1.7435    -1.2163 O.3     
  27 C27            2.2637     0.8753    -1.6654 C.3     
  28 C28           -3.9023     7.0157    -2.9708 C.3     
  29 F29           -5.2056     7.3636    -2.6001 F       
  30 F30           -2.9902     7.8187    -2.2775 F       
  31 F31           -3.7416     7.2088    -4.3470 F       
  32 N32            1.1045    -4.5683     1.8702 N.am    
  33 C33            1.7680    -3.8044     2.7605 C.2     
  34 O34            1.4983    -2.6269     2.8693 O.2     
  35 C35            2.8451    -4.4133     3.6209 C.3     
  36 H36           -3.0529     1.8665     0.4399 H       
  37 H37           -2.2419     1.0353    -2.3844 H       
  38 H38           -3.8952     0.9092    -1.7373 H       
  39 H39            0.7820    -2.0238     1.2294 H       
  40 H40           -2.9234    -2.5568    -0.8368 H       
  41 H41           -2.8435    -4.9693    -0.3628 H       
  42 H42           -1.2425     3.2019    -2.8242 H       
  43 H43           -5.2066     2.8964    -1.2832 H       
  44 H44           -5.6106     5.2606    -1.8337 H       
  45 H45            0.1531     4.7971    -2.4867 H       
  46 H46            0.5483     6.4035    -3.1435 H       
  47 H47           -0.4837     6.2614    -1.7003 H       
  48 H48           -1.9633     5.2605    -5.4810 H       
  49 H49           -0.2903     5.8363    -5.2864 H       
  50 H50           -0.7347     4.1965    -4.7553 H       
  51 H51            2.6166     0.2693    -0.8309 H       
  52 H52            1.8808     0.2239    -2.4511 H       
  53 H53            3.0888     1.4704    -2.0568 H       
  54 H54            1.3688    -5.4911     1.7308 H       
  55 H55            2.9446    -5.4724     3.3831 H       
  56 H56            3.7917    -3.9076     3.4302 H       
  57 H57            2.5780    -4.3003     4.6716 H       
@<TRIPOS>BOND
   1    1    2 2
   2    1   26 1
   3    1    6 1
   4    2    3 1
   5    3    4 am
   6    3    9 1
   7    4    5 1
   8    4   10 2
   9    5    6 1
  10    5    7 1
  11    5   36 1
  12    6    8 2
  13    7   11 1
  14    7   37 1
  15    7   38 1
  16    9   12 ar
  17    9   13 ar
  18   11   17 ar
  19   11   18 ar
  20   12   16 ar
  21   12   39 1
  22   13   14 ar
  23   13   40 1
  24   14   15 ar
  25   14   41 1
  26   15   16 ar
  27   15   22 1
  28   16   32 1
  29   17   20 ar
  30   17   42 1
  31   18   19 ar
  32   18   43 1
  33   19   21 ar
  34   19   44 1
  35   20   23 1
  36   20   21 ar
  37   21   28 1
  38   23   24 1
  39   23   25 1
  40   24   45 1
  41   24   46 1
  42   24   47 1
  43   25   48 1
  44   25   49 1
  45   25   50 1
  46   26   27 1
  47   27   51 1
  48   27   52 1
  49   27   53 1
  50   28   29 1
  51   28   30 1
  52   28   31 1
  53   32   33 am
  54   32   54 1
  55   33   34 2
  56   33   35 1
  57   35   55 1
  58   35   56 1
  59   35   57 1

#	End of record

