#	Name: ASD03090922
#	Creating user name:	WinNT
#	Creation time:	15. 06. 2019 20:29

#	Modifying user name:	WinNT
#	Modification time:	15. 06. 2019 20:29

#	Program:	/corina/corina34_cracker 3.40 0067  02.08.2006

@<TRIPOS>MOLECULE
ASD03090922
  38   41    0    0    0
SMALL
NO_CHARGES


@<TRIPOS>ATOM
   1 C1            -0.0147     1.3002     0.1108 C.2     
   2 N2             0.0032    -0.0034     0.1298 N.2     
   3 C3             1.2750    -0.4326     0.1258 C.2     
   4 C4             2.0830     0.6427     0.1035 C.2     
   5 N5             1.2703     1.7503     0.0938 N.am    
   6 C6             1.6691     3.0375     0.0709 C.2     
   7 O7             2.8571     3.3070     0.0570 O.2     
   8 N8             0.7634     4.0159     0.0636 N.2     
   9 S9             2.7768     5.8738     0.0182 S.3     
  10 C10            1.1575     5.2883     0.0411 C.2     
  11 N11            0.3663     6.3898     0.0309 N.pl3   
  12 C12            0.9921     7.5982     0.0070 C.2     
  13 C13            2.3188     7.5855    -0.0042 C.2     
  14 O14           -5.1543     5.9662     0.0723 O.3     
  15 C15           -5.8960     7.0878     0.5640 C.3     
  16 C16           -5.3221     8.3601    -0.0741 C.3     
  17 O17           -3.9418     8.4618     0.2925 O.3     
  18 C18           -3.1923     7.3318     0.1737 C.ar    
  19 C19           -3.7976     6.0846     0.0662 C.ar    
  20 C20           -1.8101     7.4319     0.1620 C.ar    
  21 C21           -1.0320     6.2884     0.0440 C.ar    
  22 C22           -1.6390     5.0446    -0.0614 C.ar    
  23 C23           -3.0169     4.9443    -0.0498 C.ar    
  24 F24           -5.4359     8.2825    -1.4663 F       
  25 F25           -6.0186     9.4789     0.3953 F       
  26 F26           -7.2439     6.9517     0.2151 F       
  27 F27           -5.7732     7.1613     1.9556 F       
  28 C28            3.2420     8.7763    -0.0304 C.3     
  29 H29           -0.8999     1.9189     0.1048 H       
  30 H30            1.5947    -1.4641     0.1384 H       
  31 H31            3.1630     0.6364     0.0954 H       
  32 H32            0.4352     8.5235    -0.0028 H       
  33 H33           -1.3382     8.3999     0.2436 H       
  34 H34           -1.0339     4.1547    -0.1522 H       
  35 H35           -3.4872     3.9755    -0.1316 H       
  36 H36            4.2768     8.4338    -0.0345 H       
  37 H37            3.0506     9.3648    -0.9277 H       
  38 H38            3.0664     9.3917     0.8519 H       
@<TRIPOS>BOND
   1    1    2 2
   2    1    5 1
   3    1   29 1
   4    2    3 1
   5    3    4 2
   6    3   30 1
   7    4    5 1
   8    4   31 1
   9    5    6 am
  10    6    7 2
  11    6    8 1
  12    8   10 2
  13    9   10 1
  14    9   13 1
  15   10   11 1
  16   11   12 1
  17   11   21 1
  18   12   13 2
  19   12   32 1
  20   13   28 1
  21   14   15 1
  22   14   19 1
  23   15   16 1
  24   15   26 1
  25   15   27 1
  26   16   17 1
  27   16   24 1
  28   16   25 1
  29   17   18 1
  30   18   19 ar
  31   18   20 ar
  32   19   23 ar
  33   20   21 ar
  34   20   33 1
  35   21   22 ar
  36   22   23 ar
  37   22   34 1
  38   23   35 1
  39   28   36 1
  40   28   37 1
  41   28   38 1

#	End of record

