#	Name: ASD01948313
#	Creating user name:	WinNT
#	Creation time:	15. 06. 2019 20:14

#	Modifying user name:	WinNT
#	Modification time:	15. 06. 2019 20:14

#	Program:	/corina/corina34_cracker 3.40 0067  02.08.2006

@<TRIPOS>MOLECULE
ASD01948313
  45   47    0    0    0
SMALL
NO_CHARGES


@<TRIPOS>ATOM
   1 C1            -0.0491     1.5931     0.2120 C.2     
   2 N2            -0.1218     0.2314     0.1676 N.am    
   3 C3             0.9890    -0.5211     0.0637 C.2     
   4 C4             2.3360     1.4671     0.0420 C.2     
   5 C5             1.1462     2.2256     0.1521 C.2     
   6 C6             2.9501     3.1298    -2.1144 C.ar    
   7 C7             3.8511     2.9811    -1.0685 C.ar    
   8 N8             3.5699     2.0974    -0.0212 N.pl3   
   9 C9             3.2305     4.0028    -3.1475 C.ar    
  10 C10            4.4077     4.7294    -3.1419 C.ar    
  11 C11            5.3085     4.5848    -2.1021 C.ar    
  12 C12            5.0342     3.7126    -1.0647 C.ar    
  13 N13            1.2054     3.6280     0.1993 N.am    
  14 S14           -0.1892     4.5117     0.3281 S.o2    
  15 C15           -0.8576     4.0679     1.9550 C.3     
  16 O16            0.8977    -1.7392     0.0262 O.2     
  17 C17           -1.4310    -0.4226     0.2347 C.3     
  18 F18            5.9136     3.5715    -0.0489 F       
  19 I19            4.8271     6.0518    -4.7117 I       
  20 O20            0.2504     5.8630     0.3214 O.2     
  21 O21           -1.0210     4.0067    -0.7074 O.2     
  22 C22            2.2486     0.0858    -0.0021 C.2     
  23 F23            3.3656    -0.6669    -0.1064 F       
  24 C24           -2.2261     4.6366     2.3356 C.3     
  25 C25           -2.0836     3.1531     1.9894 C.3     
  26 C26           -2.4564     5.0005     3.8037 C.3     
  27 C27           -2.9260     5.5361     1.3148 C.3     
  28 H28           -0.9565     2.1734     0.2915 H       
  29 H29            2.0327     2.5600    -2.1224 H       
  30 H30            4.2379     1.9253     0.6608 H       
  31 H31            2.5297     4.1181    -3.9612 H       
  32 H32            6.2270     5.1529    -2.1009 H       
  33 H33            2.0631     4.0789     0.1565 H       
  34 H34           -0.1213     3.9534     2.7505 H       
  35 H35           -1.8267    -0.5476    -0.7732 H       
  36 H36           -1.3255    -1.3991     0.7074 H       
  37 H37           -2.1147     0.1923     0.8199 H       
  38 H38           -2.4884     2.8179     1.0345 H       
  39 H39           -2.1539     2.4364     2.8077 H       
  40 H40           -1.7348     5.7588     4.1076 H       
  41 H41           -3.4668     5.3903     3.9272 H       
  42 H42           -2.3318     4.1117     4.4222 H       
  43 H43           -3.0920     4.9788     0.3929 H       
  44 H44           -3.8837     5.8658     1.7175 H       
  45 H45           -2.3009     6.4045     1.1069 H       
@<TRIPOS>BOND
   1    1    2 1
   2    1    5 2
   3    1   28 1
   4    2    3 am
   5    2   17 1
   6    3   22 1
   7    3   16 2
   8    4    5 1
   9    4    8 1
  10    4   22 2
  11    5   13 1
  12    6    7 ar
  13    6    9 ar
  14    6   29 1
  15    7    8 1
  16    7   12 ar
  17    8   30 1
  18    9   10 ar
  19    9   31 1
  20   10   11 ar
  21   10   19 1
  22   11   12 ar
  23   11   32 1
  24   12   18 1
  25   13   14 am
  26   13   33 1
  27   14   15 1
  28   14   20 2
  29   14   21 2
  30   15   24 1
  31   15   25 1
  32   15   34 1
  33   17   35 1
  34   17   36 1
  35   17   37 1
  36   22   23 1
  37   24   25 1
  38   24   26 1
  39   24   27 1
  40   25   38 1
  41   25   39 1
  42   26   40 1
  43   26   41 1
  44   26   42 1
  45   27   43 1
  46   27   44 1
  47   27   45 1

#	End of record

