#	Name: ASD03540412
#	Creating user name:	WinNT
#	Creation time:	15. 06. 2019 20:43

#	Modifying user name:	WinNT
#	Modification time:	15. 06. 2019 20:43

#	Program:	/corina/corina34_cracker 3.40 0067  02.08.2006

@<TRIPOS>MOLECULE
ASD03540412
  65   68    0    0    0
SMALL
NO_CHARGES


@<TRIPOS>ATOM
   1 N1             0.0329     1.3223     0.0375 N.am    
   2 C2             0.0382    -0.0214     0.0227 C.2     
   3 N3             1.1682    -0.7454     0.0044 N.am    
   4 C4             2.3809    -0.1503    -0.0001 C.2     
   5 C5             2.4349     1.3231     0.0151 C.ar    
   6 C6             3.6429     2.0089     0.0120 C.ar    
   7 C7             3.6351     3.4031     0.0274 C.ar    
   8 C8             2.4195     4.0981     0.0456 C.ar    
   9 C9             1.2315     3.4232     0.0491 C.ar    
  10 C10            1.2197     2.0342     0.0340 C.ar    
  11 C11            4.9101     4.1477     0.0248 C.2     
  12 O12            5.9659     3.5450     0.0094 O.2     
  13 N13            4.9035     5.4953     0.0397 N.am    
  14 C14            6.1686     6.2341     0.0372 C.3     
  15 C15            5.8860     7.7142     0.0558 C.ar    
  16 C16            5.7666     8.3790     1.2623 C.ar    
  17 C17            5.5076     9.7358     1.2820 C.ar    
  18 C18            5.3673    10.4314     0.0899 C.ar    
  19 C19            5.4875     9.7621    -1.1194 C.ar    
  20 C20            5.7522     8.4063    -1.1337 C.ar    
  21 O21            5.1120    11.7661     0.1067 O.3     
  22 C22            4.9797    12.4172    -1.1585 C.3     
  23 O23            3.4008    -0.8121    -0.0159 O.2     
  24 O24           -1.0272    -0.6069     0.0264 O.2     
  25 C25           -1.2433     2.0416     0.0514 C.3     
  26 C26            1.0849    -2.2079    -0.0104 C.3     
  27 C27            1.0430    -2.6942    -1.4362 C.ar    
  28 C28            2.2219    -2.9846    -2.0997 C.ar    
  29 C29            2.1906    -3.4302    -3.4050 C.ar    
  30 C30            0.9662    -3.5883    -4.0560 C.ar    
  31 C31           -0.2194    -3.2940    -3.3807 C.ar    
  32 C32           -0.1743    -2.8538    -2.0740 C.ar    
  33 C33            0.9251    -4.0650    -5.4549 C.2     
  34 N34            1.8942    -3.7031    -6.3188 N.am    
  35 O35            0.0174    -4.7832    -5.8259 O.2     
  36 C36            1.9236    -4.2739    -7.6677 C.3     
  37 C37            2.9183    -2.7390    -5.9090 C.3     
  38 H38            4.5777     1.4682    -0.0017 H       
  39 H39            2.4211     5.1780     0.0574 H       
  40 H40            0.3005     3.9703     0.0640 H       
  41 H41            4.0611     5.9761     0.0520 H       
  42 H42            6.7489     5.9639     0.9194 H       
  43 H43            6.7340     5.9834    -0.8604 H       
  44 H44            5.8756     7.8369     2.1900 H       
  45 H45            5.4141    10.2545     2.2246 H       
  46 H46            5.3786    10.3014    -2.0487 H       
  47 H47            5.8506     7.8857    -2.0748 H       
  48 H48            5.9043    12.3030    -1.7244 H       
  49 H49            4.1560    11.9685    -1.7137 H       
  50 H50            4.7779    13.4769    -1.0023 H       
  51 H51           -2.0644     1.3247     0.0474 H       
  52 H52           -1.3033     2.6578     0.9486 H       
  53 H53           -1.3117     2.6774    -0.8313 H       
  54 H54            1.9575    -2.6267     0.4908 H       
  55 H55            0.1805    -2.5256     0.5085 H       
  56 H56            3.1687    -2.8618    -1.5948 H       
  57 H57            3.1116    -3.6559    -3.9220 H       
  58 H58           -1.1701    -3.4143    -3.8788 H       
  59 H59           -1.0911    -2.6293    -1.5491 H       
  60 H60            0.9995    -4.0232    -8.1885 H       
  61 H61            2.7723    -3.8657    -8.2166 H       
  62 H62            2.0209    -5.3576    -7.6016 H       
  63 H63            3.7239    -3.2617    -5.3933 H       
  64 H64            3.3170    -2.2359    -6.7899 H       
  65 H65            2.4759    -2.0020    -5.2387 H       
@<TRIPOS>BOND
   1    1    2 am
   2    1   10 1
   3    1   25 1
   4    2    3 am
   5    2   24 2
   6    3    4 am
   7    3   26 1
   8    4    5 1
   9    4   23 2
  10    5    6 ar
  11    5   10 ar
  12    6    7 ar
  13    6   38 1
  14    7    8 ar
  15    7   11 1
  16    8    9 ar
  17    8   39 1
  18    9   10 ar
  19    9   40 1
  20   11   12 2
  21   11   13 am
  22   13   14 1
  23   13   41 1
  24   14   15 1
  25   14   42 1
  26   14   43 1
  27   15   16 ar
  28   15   20 ar
  29   16   17 ar
  30   16   44 1
  31   17   18 ar
  32   17   45 1
  33   18   19 ar
  34   18   21 1
  35   19   20 ar
  36   19   46 1
  37   20   47 1
  38   21   22 1
  39   22   48 1
  40   22   49 1
  41   22   50 1
  42   25   51 1
  43   25   52 1
  44   25   53 1
  45   26   27 1
  46   26   54 1
  47   26   55 1
  48   27   28 ar
  49   27   32 ar
  50   28   29 ar
  51   28   56 1
  52   29   30 ar
  53   29   57 1
  54   30   31 ar
  55   30   33 1
  56   31   32 ar
  57   31   58 1
  58   32   59 1
  59   33   34 am
  60   33   35 2
  61   34   36 1
  62   34   37 1
  63   36   60 1
  64   36   61 1
  65   36   62 1
  66   37   63 1
  67   37   64 1
  68   37   65 1

#	End of record

