#	Name: ASD07931888
#	Creating user name:	WinNT
#	Creation time:	15. 06. 2019 21:13

#	Modifying user name:	WinNT
#	Modification time:	15. 06. 2019 21:13

#	Program:	/corina/corina34_cracker 3.40 0067  02.08.2006

@<TRIPOS>MOLECULE
ASD07931888
  49   51    0    0    0
SMALL
NO_CHARGES


@<TRIPOS>ATOM
   1 C1            -0.0167     1.3781     0.0096 C.ar    
   2 C2             0.0021    -0.0041     0.0020 C.ar    
   3 C3             1.2084    -0.6789    -0.0132 C.ar    
   4 C4             2.3960     0.0285    -0.0212 C.ar    
   5 C5             2.3773     1.4107    -0.0145 C.ar    
   6 C6             1.1709     2.0855     0.0021 C.ar    
   7 S7            -1.5544     2.2383     0.0216 S.o2    
   8 O8            -1.2971     3.5278    -0.5171 O.2     
   9 O9            -2.5173     1.3465    -0.5231 O.2     
  10 O10           -1.9407     2.4503     1.4784 O.3     
  11 C11            3.7112    -0.7071    -0.0368 C.3     
  12 C12           -1.1905     3.4737     2.1356 C.3     
  13 O13           -1.3335     2.4065     4.3315 O.3     
  14 C14           -1.6607     3.5990     3.5862 C.3     
  15 C15           -0.8720     4.7125     4.3213 C.3     
  16 C16           -0.9927     4.2727     5.8007 C.3     
  17 C17           -1.3246     2.7700     5.7222 C.3     
  18 C18           -0.2740     1.9743     6.4530 C.ar    
  19 C19            0.0378     0.6938     6.0360 C.ar    
  20 C20            1.0015    -0.0361     6.7064 C.ar    
  21 C21            1.6537     0.5147     7.7936 C.ar    
  22 C22            1.3426     1.7956     8.2101 C.ar    
  23 C23            0.3820     2.5271     7.5370 C.ar    
  24 C24            2.7036    -0.2813     8.5252 C.3     
  25 F25            3.9558    -0.0420     7.9491 F       
  26 F26            2.7277     0.1034     9.8700 F       
  27 F27            2.4019    -1.6445     8.4354 F       
  28 C28           -2.7009     2.5082     6.3371 C.3     
  29 H29           -0.9258    -0.5567     0.0083 H       
  30 H30            1.2231    -1.7588    -0.0184 H       
  31 H31            3.3051     1.9634    -0.0205 H       
  32 H32            1.1563     3.1654     0.0077 H       
  33 H33            4.0186    -0.8800    -1.0681 H       
  34 H34            4.4676    -0.1100     0.4726 H       
  35 H35            3.5986    -1.6635     0.4740 H       
  36 H36           -0.1315     3.2161     2.1179 H       
  37 H37           -1.3422     4.4226     1.6212 H       
  38 H38           -2.7319     3.7959     3.6279 H       
  39 H39            0.1704     4.7257     4.0032 H       
  40 H40           -1.3371     5.6860     4.1657 H       
  41 H41           -0.0488     4.4282     6.3232 H       
  42 H42           -1.7978     4.8159     6.2957 H       
  43 H43           -0.4718     0.2634     5.1865 H       
  44 H44            1.2445    -1.0368     6.3810 H       
  45 H45            1.8519     2.2258     9.0598 H       
  46 H46            0.1415     3.5292     7.8602 H       
  47 H47           -2.9343     1.4459     6.2667 H       
  48 H48           -2.6942     2.8101     7.3845 H       
  49 H49           -3.4547     3.0823     5.7984 H       
@<TRIPOS>BOND
   1    1    2 ar
   2    1    6 ar
   3    1    7 1
   4    2    3 ar
   5    2   29 1
   6    3    4 ar
   7    3   30 1
   8    4    5 ar
   9    4   11 1
  10    5    6 ar
  11    5   31 1
  12    6   32 1
  13    7    8 2
  14    7    9 2
  15    7   10 1
  16   10   12 1
  17   11   33 1
  18   11   34 1
  19   11   35 1
  20   12   14 1
  21   12   36 1
  22   12   37 1
  23   13   14 1
  24   13   17 1
  25   14   15 1
  26   14   38 1
  27   15   16 1
  28   15   39 1
  29   15   40 1
  30   16   17 1
  31   16   41 1
  32   16   42 1
  33   17   18 1
  34   17   28 1
  35   18   19 ar
  36   18   23 ar
  37   19   20 ar
  38   19   43 1
  39   20   21 ar
  40   20   44 1
  41   21   22 ar
  42   21   24 1
  43   22   23 ar
  44   22   45 1
  45   23   46 1
  46   24   25 1
  47   24   26 1
  48   24   27 1
  49   28   47 1
  50   28   48 1
  51   28   49 1

#	End of record

