#	Name: ASD03090156
#	Creating user name:	WinNT
#	Creation time:	15. 06. 2019 20:28

#	Modifying user name:	WinNT
#	Modification time:	15. 06. 2019 20:28

#	Program:	/corina/corina34_cracker 3.40 0067  02.08.2006

@<TRIPOS>MOLECULE
ASD03090156
  33   35    0    0    0
SMALL
NO_CHARGES


@<TRIPOS>ATOM
   1 C1             0.3351     0.9209     0.6510 C.ar    
   2 C2            -0.6648     1.2228     1.5600 C.ar    
   3 C3            -1.9012     0.6198     1.4559 C.ar    
   4 C4            -2.1438    -0.2962     0.4320 C.ar    
   5 C5            -1.1319    -0.5972    -0.4823 C.ar    
   6 C6             0.0997     0.0168    -0.3708 C.ar    
   7 C7            -3.4673    -0.9463     0.3155 C.2     
   8 N8            -5.5960    -3.7124    -0.1043 N.pl3   
   9 C9            -6.9860    -3.8388    -0.0371 C.ar    
  10 C10           -7.6322    -4.8224    -0.7753 C.ar    
  11 C11           -9.0061    -4.9444    -0.7066 C.ar    
  12 C12           -9.7386    -4.0889     0.0959 C.ar    
  13 C13           -9.0985    -3.1086     0.8320 C.ar    
  14 C14           -7.7244    -2.9847     0.7724 C.ar    
  15 N15           -3.6858    -2.2341     0.1371 N.2     
  16 C16           -4.9989    -2.4634     0.0776 C.2     
  17 N17           -5.6392    -1.3257     0.2171 N.2     
  18 N18           -4.6667    -0.3257     0.3791 N.pl3   
  19 C19           -4.9046     1.1073     0.5698 C.3     
  20 Cl20          -1.4239    -1.7361    -1.7595 Cl      
  21 Cl21           1.8880     1.6846     0.7887 Cl      
  22 H22           -0.4763     1.9318     2.3526 H       
  23 H23           -2.6799     0.8562     2.1659 H       
  24 H24            0.8833    -0.2148    -1.0769 H       
  25 H25           -5.0459    -4.4924    -0.2773 H       
  26 H26           -7.0608    -5.4906    -1.4025 H       
  27 H27           -9.5091    -5.7086    -1.2805 H       
  28 H28          -10.8129    -4.1862     0.1475 H       
  29 H29           -9.6736    -2.4419     1.4574 H       
  30 H30           -7.2251    -2.2192     1.3478 H       
  31 H31           -4.8970     1.3382     1.6350 H       
  32 H32           -4.1206     1.6755     0.0693 H       
  33 H33           -5.8731     1.3742     0.1471 H       
@<TRIPOS>BOND
   1    1    2 ar
   2    1   21 1
   3    1    6 ar
   4    2    3 ar
   5    2   22 1
   6    3    4 ar
   7    3   23 1
   8    4    5 ar
   9    4    7 1
  10    5    6 ar
  11    5   20 1
  12    6   24 1
  13    7   15 2
  14    7   18 1
  15    8    9 1
  16    8   16 1
  17    8   25 1
  18    9   10 ar
  19    9   14 ar
  20   10   11 ar
  21   10   26 1
  22   11   12 ar
  23   11   27 1
  24   12   13 ar
  25   12   28 1
  26   13   14 ar
  27   13   29 1
  28   14   30 1
  29   15   16 1
  30   16   17 2
  31   17   18 1
  32   18   19 1
  33   19   31 1
  34   19   32 1
  35   19   33 1

#	End of record

