#	Name: ASD02198400
#	Creating user name:	WinNT
#	Creation time:	15. 06. 2019 20:19

#	Modifying user name:	WinNT
#	Modification time:	15. 06. 2019 20:19

#	Program:	/corina/corina34_cracker 3.40 0067  02.08.2006

@<TRIPOS>MOLECULE
ASD02198400
  41   44    0    0    0
SMALL
NO_CHARGES


@<TRIPOS>ATOM
   1 C1            -0.2651     0.8857    -0.3023 C.2     
   2 C2            -0.1103    -0.4538    -0.3042 C.2     
   3 S3             1.3123     1.6577    -0.2039 S.3     
   4 C4             2.1111     0.0913    -0.1701 C.2     
   5 C5             1.1977    -0.8830    -0.2314 C.2     
   6 S6             3.8527    -0.1566    -0.0705 S.o2    
   7 N7             4.4094    -0.3516    -1.6179 N.am    
   8 C8             4.2735     0.6824    -2.5432 C.ar    
   9 C9             4.8852     1.9334    -2.3074 C.ar    
  10 C10            4.7309     2.9656    -3.2647 C.ar    
  11 C11            3.9768     2.7319    -4.4258 C.ar    
  12 C12            3.3978     1.5155    -4.6265 C.ar    
  13 C13            3.5459     0.4900    -3.6976 C.ar    
  14 N14            5.6011     2.1527    -1.2014 N.ar    
  15 C15            6.1709     3.3116    -0.9767 C.ar    
  16 C16            6.0590     4.3697    -1.8763 C.ar    
  17 C17            5.3417     4.2120    -3.0277 C.ar    
  18 O18            4.4052     1.0637     0.4039 O.2     
  19 O19            4.0438    -1.4029     0.5848 O.2     
  20 C20           -1.5592     1.5953    -0.3776 C.2     
  21 N21           -2.7524     1.0545    -0.4570 N.2     
  22 C22           -1.7649     3.0053    -0.3725 C.2     
  23 C23           -3.1070     3.1387    -0.4577 C.2     
  24 O24           -3.6164     1.8991    -0.5035 O.3     
  25 C25            2.8921    -0.8439    -3.9513 C.3     
  26 C26           -3.8817     4.4308    -0.4903 C.3     
  27 F27           -4.0361     4.8487    -1.8165 F       
  28 F28           -5.1411     4.2341     0.0863 F       
  29 F29           -3.1872     5.4093     0.2291 F       
  30 H30           -0.9453    -1.1366    -0.3581 H       
  31 H31            1.4648    -1.9294    -0.2240 H       
  32 H32            4.8300    -1.1853    -1.8805 H       
  33 H33            3.8558     3.5158    -5.1588 H       
  34 H34            2.8189     1.3430    -5.5217 H       
  35 H35            6.7418     3.4501    -0.0704 H       
  36 H36            6.5392     5.3134    -1.6635 H       
  37 H37            5.2447     5.0212    -3.7363 H       
  38 H38           -1.0211     3.7861    -0.3135 H       
  39 H39            3.5793    -1.4865    -4.5017 H       
  40 H40            2.6402    -1.3119    -2.9997 H       
  41 H41            1.9839    -0.6979    -4.5361 H       
@<TRIPOS>BOND
   1    1    2 2
   2    1    3 1
   3    1   20 1
   4    2    5 1
   5    2   30 1
   6    3    4 1
   7    4    5 2
   8    4    6 1
   9    5   31 1
  10    6    7 am
  11    6   18 2
  12    6   19 2
  13    7    8 1
  14    7   32 1
  15    8    9 ar
  16    8   13 ar
  17    9   10 ar
  18    9   14 ar
  19   10   11 ar
  20   10   17 ar
  21   11   12 ar
  22   11   33 1
  23   12   13 ar
  24   12   34 1
  25   13   25 1
  26   14   15 ar
  27   15   16 ar
  28   15   35 1
  29   16   17 ar
  30   16   36 1
  31   17   37 1
  32   20   21 2
  33   20   22 1
  34   21   24 1
  35   22   23 2
  36   22   38 1
  37   23   24 1
  38   23   26 1
  39   25   39 1
  40   25   40 1
  41   25   41 1
  42   26   27 1
  43   26   28 1
  44   26   29 1

#	End of record

