#	Name: ASD03090209
#	Creating user name:	WinNT
#	Creation time:	15. 06. 2019 20:28

#	Modifying user name:	WinNT
#	Modification time:	15. 06. 2019 20:28

#	Program:	/corina/corina34_cracker 3.40 0067  02.08.2006

@<TRIPOS>MOLECULE
ASD03090209
  48   51    0    0    0
SMALL
NO_CHARGES


@<TRIPOS>ATOM
   1 C1            -0.2697     0.9553    -0.8437 C.ar    
   2 C2            -0.1356    -0.1809    -0.0561 C.ar    
   3 C3             1.1007    -0.7666     0.1136 C.ar    
   4 C4             2.2233    -0.2176    -0.5075 C.ar    
   5 C5             2.0900     0.9242    -1.2979 C.ar    
   6 C6             0.8465     1.5089    -1.4635 C.ar    
   7 C7             3.5508    -0.8443    -0.3281 C.2     
   8 N8             7.0652    -0.8693    -0.4209 N.pl3   
   9 C9             7.4934     0.3403    -0.9742 C.ar    
  10 C10            6.7252     0.9732    -1.9431 C.ar    
  11 C11            7.1512     2.1690    -2.4875 C.ar    
  12 C12            8.3408     2.7361    -2.0691 C.ar    
  13 C13            9.1084     2.1083    -1.1049 C.ar    
  14 C14            8.6857     0.9156    -0.5523 C.ar    
  15 N15            4.7161    -0.2731    -0.5607 N.2     
  16 C16            5.7002    -1.1326    -0.2898 C.2     
  17 N17            5.1787    -2.2657     0.1199 N.2     
  18 N18            3.7840    -2.1024     0.1090 N.pl3   
  19 C19            2.7805    -3.1002     0.4880 C.3     
  20 C20            2.5438    -3.0372     1.9983 C.3     
  21 C21            1.5115    -4.0636     2.3882 C.2     
  22 O22            1.1426    -4.1900     3.6726 O.3     
  23 O23            1.0160    -4.7726     1.5447 O.2     
  24 O24            0.7335     2.6272    -2.2316 O.3     
  25 C25           -0.5824     2.9705    -2.6792 C.3     
  26 C26           -1.5402     2.8600    -1.4852 C.3     
  27 O27           -1.5012     1.5118    -1.0037 O.3     
  28 C28           10.4048     2.7297    -0.6527 C.3     
  29 F29           10.6151     3.9264    -1.3460 F       
  30 F30           10.3428     2.9909     0.7203 F       
  31 F31           11.4599     1.8485    -0.9126 F       
  32 H32           -1.0033    -0.6070     0.4256 H       
  33 H33            1.2005    -1.6496     0.7274 H       
  34 H34            2.9565     1.3515    -1.7805 H       
  35 H35            7.7162    -1.5260    -0.1279 H       
  36 H36            5.7961     0.5306    -2.2706 H       
  37 H37            6.5546     2.6614    -3.2411 H       
  38 H38            8.6716     3.6711    -2.4965 H       
  39 H39            9.2853     0.4262     0.2009 H       
  40 H40            1.8468    -2.8932    -0.0350 H       
  41 H41            3.1361    -4.0942     0.2171 H       
  42 H42            3.4775    -3.2441     2.5213 H       
  43 H43            2.1882    -2.0431     2.2693 H       
  44 H44            0.4772    -4.8621     3.8741 H       
  45 H45           -0.5863     3.9917    -3.0603 H       
  46 H46           -0.8942     2.2830    -3.4654 H       
  47 H47           -1.2244     3.5426    -0.6963 H       
  48 H48           -2.5532     3.1073    -1.8025 H       
@<TRIPOS>BOND
   1    1    2 ar
   2    1    6 ar
   3    1   27 1
   4    2    3 ar
   5    2   32 1
   6    3    4 ar
   7    3   33 1
   8    4    5 ar
   9    4    7 1
  10    5    6 ar
  11    5   34 1
  12    6   24 1
  13    7   15 2
  14    7   18 1
  15    8    9 1
  16    8   16 1
  17    8   35 1
  18    9   10 ar
  19    9   14 ar
  20   10   11 ar
  21   10   36 1
  22   11   12 ar
  23   11   37 1
  24   12   13 ar
  25   12   38 1
  26   13   14 ar
  27   13   28 1
  28   14   39 1
  29   15   16 1
  30   16   17 2
  31   17   18 1
  32   18   19 1
  33   19   20 1
  34   19   40 1
  35   19   41 1
  36   20   21 1
  37   20   42 1
  38   20   43 1
  39   21   22 1
  40   21   23 2
  41   22   44 1
  42   24   25 1
  43   25   26 1
  44   25   45 1
  45   25   46 1
  46   26   27 1
  47   26   47 1
  48   26   48 1
  49   28   29 1
  50   28   30 1
  51   28   31 1

#	End of record

