#	Name: ASD01913915
#	Creating user name:	WinNT
#	Creation time:	15. 06. 2019 20:02

#	Modifying user name:	WinNT
#	Modification time:	15. 06. 2019 20:02

#	Program:	/corina/corina34_cracker 3.40 0067  02.08.2006

@<TRIPOS>MOLECULE
ASD01913915
  47   49    0    0    0
SMALL
NO_CHARGES


@<TRIPOS>ATOM
   1 C1            -0.0173     1.4278     0.0099 C.ar    
   2 C2             0.0021    -0.0041     0.0020 C.1     
   3 C3             0.0180    -1.1779    -0.0044 C.1     
   4 C4             0.0374    -2.6098    -0.0123 C.ar    
   5 C5            -1.1552    -3.3455    -0.0049 C.ar    
   6 C6             0.0738    -5.2913    -0.0280 C.ar    
   7 N7             1.2235    -4.6330    -0.0407 N.ar    
   8 C8             1.2495    -3.3127    -0.0336 C.ar    
   9 N9            -1.0934    -4.6646    -0.0130 N.ar    
  10 C10            1.1562     3.5252     0.0099 C.ar    
  11 C11           -1.2349     2.1130     0.0310 C.ar    
  12 C12           -0.0518     4.1989     0.0250 C.ar    
  13 N13            0.0926    -6.6792    -0.0366 N.am    
  14 C14            1.1812     2.1459     0.0023 C.ar    
  15 C15            1.1946    -7.4404    -0.0566 C.2     
  16 N16            0.9455    -8.7565    -0.0610 N.am    
  17 C17           -0.5089    -8.9730    -0.0419 C.3     
  18 C18           -1.0941    -7.5476    -0.0187 C.3     
  19 C19           -0.9567    -9.7227    -1.2982 C.3     
  20 C20           -0.9215    -9.7378     1.2174 C.3     
  21 C21            1.9607    -9.8125    -0.0815 C.3     
  22 C22            2.8169    -9.6724    -1.3418 C.3     
  23 C23            2.8512    -9.6881     1.1564 C.3     
  24 O24            2.3191    -6.9785    -0.0699 O.2     
  25 C25           -1.2455     3.4942     0.0385 C.ar    
  26 F26           -2.4212     4.1595     0.0532 F       
  27 H27           -2.1103    -2.8414     0.0077 H       
  28 H28            2.1905    -2.7828    -0.0443 H       
  29 H29            2.0824     4.0806    -0.0005 H       
  30 H30           -2.1650     1.5642     0.0412 H       
  31 H31           -0.0650     5.2788     0.0313 H       
  32 H32            2.1256     1.6221    -0.0091 H       
  33 H33           -1.6781    -7.3884     0.8877 H       
  34 H34           -1.7043    -7.3701    -0.9043 H       
  35 H35           -0.4558   -10.6898    -1.3421 H       
  36 H36           -2.0358    -9.8736    -1.2659 H       
  37 H37           -0.6977    -9.1389    -2.1814 H       
  38 H38           -0.6377    -9.1646     2.1000 H       
  39 H39           -2.0010    -9.8885     1.2136 H       
  40 H40           -0.4197   -10.7053     1.2357 H       
  41 H41            1.4718   -10.7867    -0.0810 H       
  42 H42            3.3059    -8.6982    -1.3423 H       
  43 H43            3.5723   -10.4581    -1.3571 H       
  44 H44            2.1826    -9.7610    -2.2237 H       
  45 H45            2.2412    -9.7879     2.0542 H       
  46 H46            3.6065   -10.4738     1.1411 H       
  47 H47            3.3402    -8.7139     1.1559 H       
@<TRIPOS>BOND
   1    1    2 1
   2    1   14 ar
   3    1   11 ar
   4    2    3 3
   5    3    4 1
   6    4    5 ar
   7    4    8 ar
   8    5    9 ar
   9    5   27 1
  10    6    7 ar
  11    6   13 1
  12    6    9 ar
  13    7    8 ar
  14    8   28 1
  15   10   12 ar
  16   10   14 ar
  17   10   29 1
  18   11   25 ar
  19   11   30 1
  20   12   25 ar
  21   12   31 1
  22   13   15 am
  23   13   18 1
  24   14   32 1
  25   15   16 am
  26   15   24 2
  27   16   17 1
  28   16   21 1
  29   17   18 1
  30   17   19 1
  31   17   20 1
  32   18   33 1
  33   18   34 1
  34   19   35 1
  35   19   36 1
  36   19   37 1
  37   20   38 1
  38   20   39 1
  39   20   40 1
  40   21   22 1
  41   21   23 1
  42   21   41 1
  43   22   42 1
  44   22   43 1
  45   22   44 1
  46   23   45 1
  47   23   46 1
  48   23   47 1
  49   25   26 1

#	End of record

