#	Name: ASD01180038
#	Creating user name:	WinNT
#	Creation time:	15. 06. 2019 19:06

#	Modifying user name:	WinNT
#	Modification time:	15. 06. 2019 19:06

#	Program:	/corina/corina34_cracker 3.40 0067  02.08.2006

@<TRIPOS>MOLECULE
ASD01180038
  38   39    0    0    0
SMALL
NO_CHARGES


@<TRIPOS>ATOM
   1 N1             0.0654     1.2380     0.5148 N.ar    
   2 C2             0.0457    -0.0397     0.2224 C.ar    
   3 C3             1.1828    -0.6690    -0.3151 C.ar    
   4 N4             2.2878     0.0180    -0.5339 N.ar    
   5 C5             2.3245     1.3243    -0.2412 C.ar    
   6 C6             3.4859     2.0825    -0.4621 C.ar    
   7 C7             3.4949     3.4100    -0.1544 C.ar    
   8 C8             2.3651     4.0293     0.3782 C.ar    
   9 C9             1.2228     3.3247     0.6056 C.ar    
  10 C10            1.1766     1.9540     0.3007 C.ar    
  11 S11           -1.4187    -0.9776     0.5061 S.o2    
  12 O12           -0.9442    -2.2547     0.9101 O.2     
  13 O13           -2.1874    -0.1694     1.3866 O.2     
  14 C14           -2.2133    -1.0795    -1.1214 C.3     
  15 Cl15           4.9332     4.3427    -0.4289 Cl      
  16 C16            2.3580    -2.7105    -1.0583 C.3     
  17 N17            1.1425    -2.0219    -0.6171 N.pl3   
  18 C18            3.1633    -3.1570     0.1637 C.3     
  19 C19            1.9762    -3.9348    -1.8927 C.3     
  20 N20            2.4084     5.4732     0.7013 N.pl3   
  21 O21            2.0920     6.2952    -0.1399 O.2     
  22 O22            2.7604     5.8392     1.8083 O.2     
  23 C23            0.0124     4.0123     1.1829 C.3     
  24 F24            0.0045     5.3537     0.7859 F       
  25 F25           -1.1473     3.3819     0.7195 F       
  26 F26            0.0565     3.9395     2.5793 F       
  27 H27            4.3683     1.6153    -0.8738 H       
  28 H28           -1.5423    -1.5750    -1.8230 H       
  29 H29           -3.1385    -1.6499    -1.0390 H       
  30 H30           -2.4367    -0.0747    -1.4802 H       
  31 H31            2.9607    -2.0325    -1.6626 H       
  32 H32            0.3095    -2.5123    -0.5362 H       
  33 H33            3.4352    -2.2848     0.7581 H       
  34 H34            2.5606    -3.8350     0.7680 H       
  35 H35            4.0676    -3.6693    -0.1646 H       
  36 H36            1.3736    -4.6128    -1.2883 H       
  37 H37            1.4026    -3.6167    -2.7632 H       
  38 H38            2.8806    -4.4471    -2.2209 H       
@<TRIPOS>BOND
   1    1    2 ar
   2    1   10 ar
   3    2    3 ar
   4    2   11 1
   5    3    4 ar
   6    3   17 1
   7    4    5 ar
   8    5    6 ar
   9    5   10 ar
  10    6    7 ar
  11    6   27 1
  12    7    8 ar
  13    7   15 1
  14    8    9 ar
  15    8   20 1
  16    9   10 ar
  17    9   23 1
  18   11   12 2
  19   11   13 2
  20   11   14 1
  21   14   28 1
  22   14   29 1
  23   14   30 1
  24   16   18 1
  25   16   19 1
  26   16   17 1
  27   16   31 1
  28   17   32 1
  29   18   33 1
  30   18   34 1
  31   18   35 1
  32   19   36 1
  33   19   37 1
  34   19   38 1
  35   20   21 2
  36   20   22 2
  37   23   24 1
  38   23   25 1
  39   23   26 1

#	End of record

