#	Name: ASD00843662
#	Creating user name:	WinNT
#	Creation time:	15. 06. 2019 18:47

#	Modifying user name:	WinNT
#	Modification time:	15. 06. 2019 18:47

#	Program:	/corina/corina34_cracker 3.40 0067  02.08.2006

@<TRIPOS>MOLECULE
ASD00843662
  94   99    0    0    0
SMALL
NO_CHARGES


@<TRIPOS>ATOM
   1 F1             5.7153    -2.4891    -1.9140 F       
   2 N2             0.9497     1.0795    -0.2073 N.ar    
   3 C3             1.1141    -0.1991    -0.5026 C.ar    
   4 C4             0.9530    -1.1768     0.4710 C.ar    
   5 C5             0.6173    -0.7960     1.7583 C.ar    
   6 C6             0.4537     0.5560     2.0275 C.ar    
   7 C7             0.6295     1.4732     1.0109 C.ar    
   8 C8             1.1408    -2.6326     0.1298 C.3     
   9 C9             0.7731    -3.5058     1.3105 C.2     
  10 C10            0.3037    -3.0069    -1.0950 C.3     
  11 C11           -1.1368    -2.6378    -0.8508 C.2     
  12 N12           -2.0809    -2.9750    -1.7515 N.am    
  13 O13           -1.4465    -2.0372     0.1563 O.2     
  14 C14           -3.4698    -2.5261    -1.5839 C.3     
  15 C15           -4.3932    -3.7470    -1.6433 C.3     
  16 C16           -4.1333    -4.5155    -2.9410 C.3     
  17 C17           -2.6834    -5.0049    -2.9644 C.3     
  18 C18           -1.7395    -3.7935    -2.9230 C.3     
  19 C19           -5.0779    -5.7165    -3.0202 C.3     
  20 C20           -6.5291    -5.2284    -2.9985 C.3     
  21 C21           -7.4680    -6.4287    -3.1392 C.3     
  22 N22           -7.1864    -7.1269    -4.4000 N.3     
  23 C23           -5.8129    -7.6459    -4.4242 C.3     
  24 C24           -4.8245    -6.4820    -4.3218 C.3     
  25 C25           -8.1595    -8.2019    -4.6351 C.3     
  26 O26           -0.3150    -3.5785     1.8414 O.2     
  27 N27            1.8784    -4.1854     1.6595 N.am    
  28 C28            2.6019    -2.9357    -0.1111 C.ar    
  29 C29            2.9693    -3.8740     0.8452 C.ar    
  30 C30            3.5140    -2.4716    -1.0322 C.ar    
  31 C31            4.8172    -2.9415    -1.0117 C.ar    
  32 C32            5.1962    -3.8782    -0.0620 C.ar    
  33 C33            4.2806    -4.3436     0.8621 C.ar    
  34 F34            6.4665    -4.3377    -0.0403 F       
  35 C35            1.5289    -6.8497     2.2542 C.ar    
  36 C36            2.5252    -7.6734     1.7636 C.ar    
  37 C37            0.2111    -7.2679     2.2351 C.ar    
  38 C38           -0.1132    -8.5103     1.7255 C.ar    
  39 C39            0.8847    -9.3386     1.2326 C.ar    
  40 C40            2.2061    -8.9165     1.2525 C.ar    
  41 O41            0.5683   -10.5614     0.7311 O.3     
  42 H42            3.5538    -7.3444     1.7796 H       
  43 C43            1.6468   -11.3605     0.2409 C.3     
  44 C44           -7.9111    -8.8227    -6.0113 C.3     
  45 C45           -8.0044    -9.2753    -3.5559 C.3     
  46 S46            1.9400    -5.2675     2.9115 S.o2    
  47 O47            3.3015    -5.3408     3.3119 O.2     
  48 O48            0.8870    -4.9154     3.7983 O.2     
  49 O49            1.4427    -0.5594    -1.7687 O.3     
  50 C50            1.5474     0.4883    -2.7349 C.3     
  51 C51            2.0241    -0.0928    -4.0676 C.3     
  52 F52            3.2339    -0.7686    -3.8755 F       
  53 F53            1.0642    -0.9850    -4.5573 F       
  54 H54            0.4851    -1.5339     2.5358 H       
  55 H55            0.1914     0.8868     3.0216 H       
  56 H56            0.5039     2.5262     1.2151 H       
  57 H57            0.6742    -2.4678    -1.9669 H       
  58 H58            0.3788    -4.0798    -1.2723 H       
  59 H59           -3.5800    -2.0313    -0.6190 H       
  60 H60           -3.7288    -1.8328    -2.3841 H       
  61 H61           -4.1940    -4.3957    -0.7903 H       
  62 H62           -5.4323    -3.4190    -1.6167 H       
  63 H63           -4.3088    -3.8590    -3.7932 H       
  64 H64           -2.5003    -5.6417    -2.0989 H       
  65 H65           -2.5056    -5.5720    -3.8781 H       
  66 H66           -1.8588    -3.2060    -3.8332 H       
  67 H67           -0.7083    -4.1365    -2.8395 H       
  68 H68           -4.9023    -6.3747    -2.1693 H       
  69 H69           -6.7278    -4.7195    -2.0554 H       
  70 H70           -6.6934    -4.5388    -3.8265 H       
  71 H71           -7.3128    -7.1111    -2.3036 H       
  72 H72           -8.5018    -6.0831    -3.1386 H       
  73 H73           -5.6654    -8.3226    -3.5825 H       
  74 H74           -5.6445    -8.1844    -5.3568 H       
  75 H75           -4.9620    -5.8121    -5.1706 H       
  76 H76           -3.8054    -6.8687    -4.3241 H       
  77 H77           -9.1691    -7.7926    -4.5981 H       
  78 H78            3.2138    -1.7423    -1.7701 H       
  79 H79            4.5823    -5.0728     1.5993 H       
  80 H80           -0.5653    -6.6229     2.6193 H       
  81 H81           -1.1426    -8.8367     1.7111 H       
  82 H82            2.9847    -9.5596     0.8696 H       
  83 H83            2.3551   -11.5491     1.0477 H       
  84 H84            1.2573   -12.3086    -0.1297 H       
  85 H85            2.1507   -10.8332    -0.5691 H       
  86 H86           -6.9015    -9.2320    -6.0484 H       
  87 H87           -8.6331    -9.6204    -6.1858 H       
  88 H88           -8.0215    -8.0580    -6.7801 H       
  89 H89           -6.9949    -9.6846    -3.5930 H       
  90 H90           -8.1814    -8.8331    -2.5755 H       
  91 H91           -8.7265   -10.0730    -3.7304 H       
  92 H92            0.5723     0.9561    -2.8706 H       
  93 H93            2.2626     1.2335    -2.3868 H       
  94 H94            2.1690     0.7149    -4.7850 H       
@<TRIPOS>BOND
   1    1   31 1
   2    2    3 ar
   3    2    7 ar
   4    3    4 ar
   5    3   49 1
   6    4    5 ar
   7    4    8 1
   8    5    6 ar
   9    5   54 1
  10    6    7 ar
  11    6   55 1
  12    7   56 1
  13    8    9 1
  14    8   10 1
  15    8   28 1
  16    9   26 2
  17    9   27 am
  18   10   11 1
  19   10   57 1
  20   10   58 1
  21   11   12 am
  22   11   13 2
  23   12   14 1
  24   12   18 1
  25   14   15 1
  26   14   59 1
  27   14   60 1
  28   15   16 1
  29   15   61 1
  30   15   62 1
  31   16   17 1
  32   16   19 1
  33   16   63 1
  34   17   18 1
  35   17   64 1
  36   17   65 1
  37   18   66 1
  38   18   67 1
  39   19   20 1
  40   19   24 1
  41   19   68 1
  42   20   21 1
  43   20   69 1
  44   20   70 1
  45   21   22 1
  46   21   71 1
  47   21   72 1
  48   22   23 1
  49   22   25 1
  50   23   24 1
  51   23   73 1
  52   23   74 1
  53   24   75 1
  54   24   76 1
  55   25   44 1
  56   25   45 1
  57   25   77 1
  58   27   46 am
  59   27   29 1
  60   28   29 ar
  61   28   30 ar
  62   29   33 ar
  63   30   31 ar
  64   30   78 1
  65   31   32 ar
  66   32   33 ar
  67   32   34 1
  68   33   79 1
  69   35   36 ar
  70   35   37 ar
  71   35   46 1
  72   36   42 1
  73   36   40 ar
  74   37   38 ar
  75   37   80 1
  76   38   39 ar
  77   38   81 1
  78   39   40 ar
  79   39   41 1
  80   40   82 1
  81   41   43 1
  82   43   83 1
  83   43   84 1
  84   43   85 1
  85   44   86 1
  86   44   87 1
  87   44   88 1
  88   45   89 1
  89   45   90 1
  90   45   91 1
  91   46   47 2
  92   46   48 2
  93   49   50 1
  94   50   51 1
  95   50   92 1
  96   50   93 1
  97   51   52 1
  98   51   53 1
  99   51   94 1

#	End of record

