#	Name: ASD01410349
#	Creating user name:	WinNT
#	Creation time:	15. 06. 2019 19:17

#	Modifying user name:	WinNT
#	Modification time:	15. 06. 2019 19:17

#	Program:	/corina/corina34_cracker 3.40 0067  02.08.2006

@<TRIPOS>MOLECULE
ASD01410349
  60   64    0    0    0
SMALL
NO_CHARGES


@<TRIPOS>ATOM
   1 N1            -0.0166     1.3701     0.0096 N.pl3   
   2 C2             0.0021    -0.0041     0.0020 C.2     
   3 C3            -1.2735    -0.4712     0.0117 C.2     
   4 C4            -2.1437     0.6444     0.0260 C.ar    
   5 C5            -1.3303     1.7964     0.0304 C.ar    
   6 C6            -3.5405     0.7732     0.0396 C.ar    
   7 C7            -4.1103     2.0088     0.0514 C.ar    
   8 C8            -3.3090     3.1609     0.0494 C.ar    
   9 C9            -1.9183     3.0500     0.0442 C.ar    
  10 C10           -2.5095    -2.2195     1.2627 C.3     
  11 C11           -2.9304    -3.6904     1.2580 C.3     
  12 C12           -3.7763    -3.9749     0.0152 C.3     
  13 C13           -2.9548    -3.6756    -1.2403 C.3     
  14 C14           -2.5339    -2.2046    -1.2357 C.3     
  15 C15           -1.6880    -1.9201     0.0071 C.3     
  16 C16            1.1626     2.2394     0.0030 C.3     
  17 C17            1.5534     2.5451    -1.4200 C.2     
  18 O18            0.9102     2.0824    -2.3382 O.2     
  19 C19            3.0182     3.6453    -3.0532 C.3     
  20 N20            2.6175     3.3328    -1.6722 N.am    
  21 C21            3.4127     3.9060    -0.5748 C.3     
  22 C22            3.1834     5.1643    -3.1767 C.3     
  23 C23            3.5587     5.4123    -0.8190 C.3     
  24 O24            4.0542     5.6288    -2.1424 O.3     
  25 C25            2.3044    -0.5835    -0.8529 C.2     
  26 C26            3.3170    -1.4373    -0.7381 C.2     
  27 S27            2.9436    -2.6542     0.4744 S.3     
  28 C28            1.3745    -1.9213     0.7797 C.2     
  29 C29            1.2190    -0.8422    -0.0145 C.2     
  30 C30           -3.9388     4.4926     0.0617 C.2     
  31 O31           -3.2472     5.4919     0.0600 O.2     
  32 O32           -5.2821     4.6028     0.0748 O.3     
  33 H33           -4.1639    -0.1087     0.0405 H       
  34 H34           -5.1861     2.1035     0.0618 H       
  35 H35           -1.3033     3.9378     0.0430 H       
  36 H36           -3.3976    -1.5875     1.2751 H       
  37 H37           -1.9069    -2.0168     2.1480 H       
  38 H38           -2.0424    -4.3224     1.2456 H       
  39 H39           -3.5157    -3.9037     2.1525 H       
  40 H40           -4.0761    -5.0229     0.0119 H       
  41 H41           -4.6643    -3.3430     0.0277 H       
  42 H42           -2.0668    -4.3075    -1.2527 H       
  43 H43           -3.5574    -3.8782    -2.1257 H       
  44 H44           -1.9487    -1.9913    -2.1301 H       
  45 H45           -3.4219    -1.5726    -1.2232 H       
  46 H46           -0.8000    -2.5520    -0.0053 H       
  47 H47            0.9319     3.1686     0.5240 H       
  48 H48            1.9880     1.7359     0.5063 H       
  49 H49            3.9639     3.1535    -3.2813 H       
  50 H50            2.2491     3.3022    -3.7452 H       
  51 H51            2.9049     3.7355     0.3745 H       
  52 H52            4.3981     3.4404    -0.5533 H       
  53 H53            3.6120     5.4061    -4.1493 H       
  54 H54            2.2105     5.6456    -3.0769 H       
  55 H55            2.5871     5.8945    -0.7106 H       
  56 H56            4.2572     5.8325    -0.0954 H       
  57 H57            2.3223     0.2498    -1.5397 H       
  58 H58            4.2343    -1.3901    -1.3062 H       
  59 H59            0.6472    -2.2802     1.4928 H       
  60 H60           -5.6491     5.4974     0.0825 H       
@<TRIPOS>BOND
   1    1    2 1
   2    1   16 1
   3    1    5 1
   4    2    3 2
   5    2   29 1
   6    3    4 1
   7    3   15 1
   8    4    5 ar
   9    4    6 ar
  10    5    9 ar
  11    6    7 ar
  12    6   33 1
  13    7    8 ar
  14    7   34 1
  15    8    9 ar
  16    8   30 1
  17    9   35 1
  18   10   11 1
  19   10   15 1
  20   10   36 1
  21   10   37 1
  22   11   12 1
  23   11   38 1
  24   11   39 1
  25   12   13 1
  26   12   40 1
  27   12   41 1
  28   13   14 1
  29   13   42 1
  30   13   43 1
  31   14   15 1
  32   14   44 1
  33   14   45 1
  34   15   46 1
  35   16   17 1
  36   16   47 1
  37   16   48 1
  38   17   18 2
  39   17   20 am
  40   19   20 1
  41   19   22 1
  42   19   49 1
  43   19   50 1
  44   20   21 1
  45   21   23 1
  46   21   51 1
  47   21   52 1
  48   22   24 1
  49   22   53 1
  50   22   54 1
  51   23   24 1
  52   23   55 1
  53   23   56 1
  54   25   26 2
  55   25   29 1
  56   25   57 1
  57   26   27 1
  58   26   58 1
  59   27   28 1
  60   28   29 2
  61   28   59 1
  62   30   31 2
  63   30   32 1
  64   32   60 1

#	End of record

