#	Name: ASD01880003
#	Creating user name:	WinNT
#	Creation time:	15. 06. 2019 19:39

#	Modifying user name:	WinNT
#	Modification time:	15. 06. 2019 19:39

#	Program:	/corina/corina34_cracker 3.40 0067  02.08.2006

@<TRIPOS>MOLECULE
ASD01880003
  33   34    0    0    0
SMALL
NO_CHARGES


@<TRIPOS>ATOM
   1 N1            -0.0154     1.2839     0.0091 N.pl3   
   2 N2             0.0021    -0.0041     0.0020 N.2     
   3 N3             1.2033    -0.4649    -0.0119 N.2     
   4 C4             2.0741     0.5645    -0.0147 C.ar    
   5 C5             1.2843     1.7298    -0.0009 C.ar    
   6 C6             3.4670     0.6759    -0.0271 C.ar    
   7 C7             4.0484     1.9285    -0.0255 C.ar    
   8 C8             3.2560     3.0739    -0.0118 C.ar    
   9 C9             1.8924     2.9784    -0.0004 C.ar    
  10 O10            5.4033     2.0444    -0.0370 O.3     
  11 C11            5.9411     3.3683    -0.0346 C.3     
  12 C12           -1.2133     2.1272     0.0196 C.3     
  13 C13           -1.6228     2.4135     1.4657 C.3     
  14 C14           -0.4829     3.1377     2.1848 C.3     
  15 C15           -2.8739     3.2942     1.4767 C.3     
  16 C16           -1.9211     1.0947     2.1819 C.3     
  17 Br17           4.5472    -0.8761    -0.0451 Br      
  18 H18            3.7236     4.0474    -0.0103 H       
  19 H19            1.2882     3.8735     0.0099 H       
  20 H20            7.0299     3.3182    -0.0447 H       
  21 H21            5.5939     3.9031    -0.9187 H       
  22 H22            5.6098     3.8935     0.8612 H       
  23 H23           -1.0007     3.0667    -0.4906 H       
  24 H24           -2.0254     1.6113    -0.4926 H       
  25 H25           -0.2704     4.0772     1.6746 H       
  26 H26           -0.7746     3.3417     3.2150 H       
  27 H27            0.4084     2.5103     2.1769 H       
  28 H28           -3.6859     2.7782     0.9645 H       
  29 H29           -3.1656     3.4981     2.5070 H       
  30 H30           -2.6613     4.2337     0.9666 H       
  31 H31           -1.0299     0.4673     2.1740 H       
  32 H32           -2.2129     1.2987     3.2121 H       
  33 H33           -2.7332     0.5788     1.6696 H       
@<TRIPOS>BOND
   1    1    2 1
   2    1    5 1
   3    1   12 1
   4    2    3 2
   5    3    4 1
   6    4    5 ar
   7    4    6 ar
   8    5    9 ar
   9    6    7 ar
  10    6   17 1
  11    7    8 ar
  12    7   10 1
  13    8    9 ar
  14    8   18 1
  15    9   19 1
  16   10   11 1
  17   11   20 1
  18   11   21 1
  19   11   22 1
  20   12   13 1
  21   12   23 1
  22   12   24 1
  23   13   14 1
  24   13   15 1
  25   13   16 1
  26   14   25 1
  27   14   26 1
  28   14   27 1
  29   15   28 1
  30   15   29 1
  31   15   30 1
  32   16   31 1
  33   16   32 1
  34   16   33 1

#	End of record

