#	Name: ASD08070227
#	Creating user name:	WinNT
#	Creation time:	15. 06. 2019 21:14

#	Modifying user name:	WinNT
#	Modification time:	15. 06. 2019 21:14

#	Program:	/corina/corina34_cracker 3.40 0067  02.08.2006

@<TRIPOS>MOLECULE
ASD08070227
  37   38    0    0    0
SMALL
NO_CHARGES


@<TRIPOS>ATOM
   1 C1            -0.0630     1.4538    -0.1521 C.ar    
   2 C2            -0.6767     0.9493    -1.2996 C.ar    
   3 C3            -1.9098     0.1418    -1.1880 C.2     
   4 N4            -2.4438    -0.1088     0.0239 N.am    
   5 C5            -3.6909    -2.1581     0.3210 C.ar    
   6 O6            -2.4423    -0.2964    -2.1893 O.2     
   7 C7            -4.8992    -2.8236     0.4204 C.ar    
   8 C8            -3.6691    -0.7845     0.1243 C.ar    
   9 C9            -4.8654    -0.0774     0.0272 C.ar    
  10 C10           -6.0735    -0.7472     0.1273 C.ar    
  11 C11           -6.0907    -2.1211     0.3182 C.ar    
  12 O12           -4.8471     1.2685    -0.1650 O.3     
  13 C13           -6.1115     1.9283    -0.2551 C.3     
  14 O14           -7.2769    -2.7782     0.4158 O.3     
  15 C15           -7.2208    -4.1926     0.6120 C.3     
  16 Cl16          -2.2012    -3.0401     0.4494 Cl      
  17 C17           -0.1213     1.2111    -2.5534 C.ar    
  18 C18            1.0292     1.9658    -2.6506 C.ar    
  19 C19            1.6330     2.4626    -1.5088 C.ar    
  20 C20            1.0875     2.2072    -0.2634 C.ar    
  21 C21            1.6303     2.2494    -4.0031 C.3     
  22 F22            1.0892     3.4337    -4.5148 F       
  23 F23            3.0169     2.3862    -3.8778 F       
  24 F24            1.3427     1.1916    -4.8723 F       
  25 H25           -0.4901     1.2586     0.8204 H       
  26 H26           -1.9809     0.1781     0.8266 H       
  27 H27           -4.9150    -3.8920     0.5776 H       
  28 H28           -7.0019    -0.2006     0.0526 H       
  29 H29           -6.6695     1.7719     0.6680 H       
  30 H30           -5.9541     2.9960    -0.4081 H       
  31 H31           -6.6752     1.5203    -1.0941 H       
  32 H32           -8.2334    -4.5914     0.6728 H       
  33 H33           -6.6979    -4.6550    -0.2252 H       
  34 H34           -6.6884    -4.4102     1.5378 H       
  35 H35           -0.5911     0.8234    -3.4452 H       
  36 H36            2.5341     3.0523    -1.5904 H       
  37 H37            1.5637     2.5979     0.6237 H       
@<TRIPOS>BOND
   1    1    2 ar
   2    1   20 ar
   3    1   25 1
   4    2    3 1
   5    2   17 ar
   6    3    4 am
   7    3    6 2
   8    4    8 1
   9    4   26 1
  10    5    7 ar
  11    5   16 1
  12    5    8 ar
  13    7   11 ar
  14    7   27 1
  15    8    9 ar
  16    9   12 1
  17    9   10 ar
  18   10   11 ar
  19   10   28 1
  20   11   14 1
  21   12   13 1
  22   13   29 1
  23   13   30 1
  24   13   31 1
  25   14   15 1
  26   15   32 1
  27   15   33 1
  28   15   34 1
  29   17   18 ar
  30   17   35 1
  31   18   19 ar
  32   18   21 1
  33   19   20 ar
  34   19   36 1
  35   20   37 1
  36   21   22 1
  37   21   23 1
  38   21   24 1

#	End of record

