#	Name: ASD00311261
#	Creating user name:	WinNT
#	Creation time:	15. 06. 2019 18:34

#	Modifying user name:	WinNT
#	Modification time:	15. 06. 2019 18:34

#	Program:	/corina/corina34_cracker 3.40 0067  02.08.2006

@<TRIPOS>MOLECULE
ASD00311261
  35   38    0    0    0
SMALL
NO_CHARGES


@<TRIPOS>ATOM
   1 C1            -0.0167     1.3778     0.0096 C.2     
   2 C2             0.0021    -0.0041     0.0020 C.2     
   3 C3             1.2589    -0.6766    -0.0136 C.2     
   4 C4             2.4315     0.0673    -0.0208 C.2     
   5 C5             2.3574     1.4752    -0.0126 C.2     
   6 N6             1.1648     2.0904     0.0022 N.am    
   7 C7            -1.3431    -0.5750     0.0123 C.2     
   8 C8            -2.3223     0.3256     0.0268 C.2     
   9 S9            -1.6794     1.9560     0.0358 S.3     
  10 O10            3.3822     2.1374    -0.0184 O.2     
  11 C11            4.1348    -1.3827    -1.1328 C.ar    
  12 C12            3.7478    -0.6119    -0.0366 C.ar    
  13 C13            4.6232    -0.4907     1.0472 C.ar    
  14 C14            5.8415    -1.1448     0.9831 C.ar    
  15 C15            6.1512    -1.8901    -0.1398 C.ar    
  16 N16            5.3049    -1.9868    -1.1473 N.ar    
  17 O17            1.3089    -2.0291    -0.0209 O.3     
  18 C18           -1.5955    -2.0355     0.0062 C.ar    
  19 C19           -2.4692    -2.5985     0.9357 C.ar    
  20 C20           -2.7005    -3.9587     0.9255 C.ar    
  21 C21           -2.0670    -4.7641    -0.0052 C.ar    
  22 C22           -1.1984    -4.2105    -0.9300 C.ar    
  23 C23           -0.9646    -2.8507    -0.9328 C.ar    
  24 Br24          -2.3890    -6.6274    -0.0130 Br      
  25 H25            1.1326     3.0599     0.0073 H       
  26 H26           -3.3749     0.0838     0.0354 H       
  27 H27            3.4671    -1.4889    -1.9750 H       
  28 H28            4.3558     0.0984     1.9120 H       
  29 H29            6.5429    -1.0735     1.8013 H       
  30 H30            7.1009    -2.4016    -0.1928 H       
  31 H31            2.2062    -2.3895    -0.0315 H       
  32 H32           -2.9636    -1.9710     1.6625 H       
  33 H33           -3.3767    -4.3958     1.6452 H       
  34 H34           -0.7065    -4.8435    -1.6537 H       
  35 H35           -0.2904    -2.4191    -1.6578 H       
@<TRIPOS>BOND
   1    1    2 2
   2    1    6 1
   3    1    9 1
   4    2    3 1
   5    2    7 1
   6    3    4 2
   7    3   17 1
   8    4    5 1
   9    4   12 1
  10    5    6 am
  11    5   10 2
  12    6   25 1
  13    7    8 2
  14    7   18 1
  15    8    9 1
  16    8   26 1
  17   11   12 ar
  18   11   16 ar
  19   11   27 1
  20   12   13 ar
  21   13   14 ar
  22   13   28 1
  23   14   15 ar
  24   14   29 1
  25   15   16 ar
  26   15   30 1
  27   17   31 1
  28   18   19 ar
  29   18   23 ar
  30   19   20 ar
  31   19   32 1
  32   20   21 ar
  33   20   33 1
  34   21   22 ar
  35   21   24 1
  36   22   23 ar
  37   22   34 1
  38   23   35 1

#	End of record

