#	Name: ASD01410198
#	Creating user name:	WinNT
#	Creation time:	15. 06. 2019 19:16

#	Modifying user name:	WinNT
#	Modification time:	15. 06. 2019 19:16

#	Program:	/corina/corina34_cracker 3.40 0067  02.08.2006

@<TRIPOS>MOLECULE
ASD01410198
  43   46    0    0    0
SMALL
NO_CHARGES


@<TRIPOS>ATOM
   1 C1            -0.0170     1.4024     0.0098 C.ar    
   2 C2             0.0021    -0.0041     0.0020 C.ar    
   3 C3            -1.2051    -0.7235     0.0101 C.ar    
   4 C4            -2.3933    -0.0645     0.0249 C.ar    
   5 C5            -2.4289     1.3402     0.0323 C.ar    
   6 C6            -1.2362     2.0740     0.0301 C.ar    
   7 N7             1.2968     1.8310    -0.0005 N.pl3   
   8 C8             2.1195     0.7316    -0.0142 C.2     
   9 C9             1.3621    -0.3956    -0.0131 C.2     
  10 C10           -3.7209     2.0408     0.0474 C.2     
  11 O11           -3.7533     3.2561     0.0539 O.2     
  12 O12           -4.8700     1.3358     0.0541 O.3     
  13 C13            5.7192     1.3116    -0.5325 C.2     
  14 O14            5.7044     0.3570     0.4102 O.3     
  15 C15            4.4462     0.0187     0.7253 C.2     
  16 C16            3.5977     0.7691    -0.0289 C.2     
  17 C17            4.4548     1.6239    -0.8603 C.2     
  18 C18            1.2639    -2.6293     1.1381 C.3     
  19 C19            1.3636    -4.0941     0.6646 C.3     
  20 C20            1.4336    -4.0556    -0.8721 C.3     
  21 C21            1.3739    -2.5687    -1.2788 C.3     
  22 C22            1.8780    -1.8115    -0.0251 C.3     
  23 C23            1.7389     3.2277     0.0023 C.3     
  24 O24           -1.2687     3.4303     0.0373 O.3     
  25 H25           -1.1884    -1.8034     0.0041 H       
  26 H26           -3.3168    -0.6243     0.0307 H       
  27 H27           -5.6947     1.8406     0.0640 H       
  28 H28            6.6056     1.7600    -0.9564 H       
  29 H29            4.1553    -0.7234     1.4539 H       
  30 H30            4.1337     2.3553    -1.5872 H       
  31 H31            0.2221    -2.3487     1.2934 H       
  32 H32            1.8395    -2.4839     2.0522 H       
  33 H33            2.2646    -4.5564     1.0678 H       
  34 H34            0.4827    -4.6507     0.9844 H       
  35 H35            2.3685    -4.4991    -1.2146 H       
  36 H36            0.5866    -4.5934    -1.2981 H       
  37 H37            2.0298    -2.3789    -2.1284 H       
  38 H38            0.3499    -2.2783    -1.5138 H       
  39 H39            2.9669    -1.8247     0.0223 H       
  40 H40            1.8587     3.5688     1.0306 H       
  41 H41            2.6919     3.3082    -0.5205 H       
  42 H42            0.9950     3.8453    -0.5010 H       
  43 H43           -1.2737     3.8189     0.9228 H       
@<TRIPOS>BOND
   1    1    2 ar
   2    1    7 1
   3    1    6 ar
   4    2    3 ar
   5    2    9 1
   6    3    4 ar
   7    3   25 1
   8    4    5 ar
   9    4   26 1
  10    5    6 ar
  11    5   10 1
  12    6   24 1
  13    7    8 1
  14    7   23 1
  15    8    9 2
  16    8   16 1
  17    9   22 1
  18   10   11 2
  19   10   12 1
  20   12   27 1
  21   13   14 1
  22   13   17 2
  23   13   28 1
  24   14   15 1
  25   15   16 2
  26   15   29 1
  27   16   17 1
  28   17   30 1
  29   18   19 1
  30   18   22 1
  31   18   31 1
  32   18   32 1
  33   19   20 1
  34   19   33 1
  35   19   34 1
  36   20   21 1
  37   20   35 1
  38   20   36 1
  39   21   22 1
  40   21   37 1
  41   21   38 1
  42   22   39 1
  43   23   40 1
  44   23   41 1
  45   23   42 1
  46   24   43 1

#	End of record

