#	Name: ASD04880281
#	Creating user name:	WinNT
#	Creation time:	15. 06. 2019 20:53

#	Modifying user name:	WinNT
#	Modification time:	15. 06. 2019 20:53

#	Program:	/corina/corina34_cracker 3.40 0067  02.08.2006

@<TRIPOS>MOLECULE
ASD04880281
  43   45    0    0    0
SMALL
NO_CHARGES


@<TRIPOS>ATOM
   1 C1            -0.0165     1.4669     0.0290 C.3     
   2 N2             0.0029    -0.0045     0.0148 N.am    
   3 N3             1.3273    -0.4374     0.0035 N.2     
   4 C4             2.1929     0.5164     0.0079 C.2     
   5 C5             1.4771     1.8481     0.0245 C.3     
   6 C6            -1.0829    -0.8029     0.0135 C.2     
   7 N7            -0.9345    -2.1424    -0.0002 N.am    
   8 O8            -2.1966    -0.3147     0.0246 O.2     
   9 C9            -2.0984    -4.1798    -0.5711 C.ar    
  10 C10           -2.0557    -2.9717     0.1121 C.ar    
  11 C11            3.6564     0.3371    -0.0010 C.ar    
  12 C12            4.4985     1.4519     0.0056 C.ar    
  13 C13            5.8670     1.2820    -0.0023 C.ar    
  14 C14            6.4108     0.0059    -0.0171 C.ar    
  15 C15            5.5772    -1.1103    -0.0237 C.ar    
  16 C16            4.2044    -0.9480    -0.0101 C.ar    
  17 O17            6.1140    -2.3597    -0.0387 O.3     
  18 C18           -3.1276    -2.5883     0.9074 C.ar    
  19 C19           -4.2337    -3.4086     1.0175 C.ar    
  20 C20           -4.2753    -4.6110     0.3370 C.ar    
  21 C21           -3.2082    -4.9974    -0.4575 C.ar    
  22 F22           -3.2516    -6.1731    -1.1215 F       
  23 O23            7.7605    -0.1559    -0.0257 O.3     
  24 C24            8.5562     1.0311    -0.0187 C.3     
  25 C25            5.2003    -3.4584    -0.0447 C.3     
  26 H26           -0.5135     1.8525    -0.8612 H       
  27 H27           -0.5038     1.8354     0.9316 H       
  28 H28            1.7219     2.4249    -0.8674 H       
  29 H29            1.7316     2.4078     0.9246 H       
  30 H30           -0.0502    -2.5315    -0.0878 H       
  31 H31           -1.2681    -4.4785    -1.1938 H       
  32 H32            4.0778     2.4465     0.0164 H       
  33 H33            6.5169     2.1445     0.0028 H       
  34 H34            3.5571    -1.8125    -0.0152 H       
  35 H35           -3.0964    -1.6492     1.4400 H       
  36 H36           -5.0669    -3.1101     1.6364 H       
  37 H37           -5.1411    -5.2505     0.4251 H       
  38 H38            8.3271     1.6273    -0.9020 H       
  39 H39            8.3364     1.6106     0.8779 H       
  40 H40            9.6122     0.7607    -0.0268 H       
  41 H41            4.5683    -3.4005    -0.9309 H       
  42 H42            5.7580    -4.3948    -0.0567 H       
  43 H43            4.5775    -3.4179     0.8490 H       
@<TRIPOS>BOND
   1    1    2 1
   2    1    5 1
   3    1   26 1
   4    1   27 1
   5    2    3 1
   6    2    6 am
   7    3    4 2
   8    4    5 1
   9    4   11 1
  10    5   28 1
  11    5   29 1
  12    6    7 am
  13    6    8 2
  14    7   10 1
  15    7   30 1
  16    9   10 ar
  17    9   21 ar
  18    9   31 1
  19   10   18 ar
  20   11   12 ar
  21   11   16 ar
  22   12   13 ar
  23   12   32 1
  24   13   14 ar
  25   13   33 1
  26   14   15 ar
  27   14   23 1
  28   15   16 ar
  29   15   17 1
  30   16   34 1
  31   17   25 1
  32   18   19 ar
  33   18   35 1
  34   19   20 ar
  35   19   36 1
  36   20   21 ar
  37   20   37 1
  38   21   22 1
  39   23   24 1
  40   24   38 1
  41   24   39 1
  42   24   40 1
  43   25   41 1
  44   25   42 1
  45   25   43 1

#	End of record

