#	Name: ASD02320050
#	Creating user name:	WinNT
#	Creation time:	15. 06. 2019 20:20

#	Modifying user name:	WinNT
#	Modification time:	15. 06. 2019 20:20

#	Program:	/corina/corina34_cracker 3.40 0067  02.08.2006

@<TRIPOS>MOLECULE
ASD02320050
 107  113    0    0    0
SMALL
NO_CHARGES


@<TRIPOS>ATOM
   1 C1            -0.0574     1.3487    -0.1257 C.ar    
   2 C2            -0.0314    -0.0396    -0.1488 C.ar    
   3 C3             1.1636    -0.7223    -0.1695 C.ar    
   4 C4             2.3673    -0.0117    -0.1673 C.ar    
   5 C5             2.3364     1.4016    -0.1438 C.ar    
   6 C6             1.1155     2.0721    -0.1231 C.ar    
   7 N7             3.5580    -0.6433    -0.1867 N.2     
   8 C8             4.6872     0.0188    -0.1843 C.2     
   9 N9             4.7510     1.3855    -0.1623 N.am    
  10 C10            3.6171     2.1241    -0.1416 C.2     
  11 O11            3.6559     3.3405    -0.1222 O.2     
  12 C12            5.9508    -0.7446    -0.2060 C.ar    
  13 C13            6.9163    -0.5291     0.7805 C.ar    
  14 C14            8.0936    -1.2437     0.7571 C.ar    
  15 C15            8.3219    -2.1776    -0.2462 C.ar    
  16 C16            7.3644    -2.3946    -1.2295 C.ar    
  17 C17            6.1817    -1.6885    -1.2096 C.ar    
  18 N18           17.2284     6.9668    -8.7718 N.pl3   
  19 C19           18.3666     6.4852    -9.3228 C.2     
  20 N20           17.4869     8.1150    -8.2509 N.2     
  21 N21           18.7254     8.4139    -8.4277 N.2     
  22 C22           19.3195     7.4195    -9.0970 C.2     
  23 C23           20.7654     7.3524    -9.5163 C.3     
  24 N24           20.9365     8.0501   -10.7931 N.am    
  25 C25           21.1320     9.3893   -10.8070 C.2     
  26 C26           20.9032     7.3430   -11.9642 C.2     
  27 N27           21.0492     7.9007   -13.1395 N.2     
  28 C28           21.2441     9.2276   -13.2738 C.ar    
  29 C29           21.2975    10.0371   -12.1162 C.ar    
  30 C30           21.3996     9.8203   -14.5305 C.ar    
  31 C31           21.5955    11.1691   -14.6257 C.ar    
  32 C32           21.6435    11.9664   -13.4894 C.ar    
  33 C33           21.4980    11.4111   -12.2367 C.ar    
  34 O34           21.1689    10.0330    -9.7745 O.2     
  35 C35           20.6934     5.8830   -11.8991 C.ar    
  36 C36           19.6456     5.2936   -12.6107 C.ar    
  37 C37           19.4533     3.9311   -12.5473 C.ar    
  38 C38           20.2997     3.1431   -11.7769 C.ar    
  39 C39           21.3430     3.7255   -11.0676 C.ar    
  40 C40           21.5457     5.0866   -11.1303 C.ar    
  41 C41            6.0549     2.0535    -0.1607 C.3     
  42 C42            6.5651     2.1797    -1.5976 C.3     
  43 C43            7.9268     2.8773    -1.5958 C.3     
  44 C44            8.4370     3.0035    -3.0327 C.3     
  45 C45            9.7987     3.7011    -3.0310 C.3     
  46 C46           10.3088     3.8274    -4.4679 C.3     
  47 C47           11.6706     4.5249    -4.4662 C.3     
  48 C48           12.1807     4.6512    -5.9031 C.3     
  49 C49           13.5425     5.3488    -5.9014 C.3     
  50 C50           14.0526     5.4750    -7.3383 C.3     
  51 C51           15.4143     6.1726    -7.3366 C.3     
  52 C52           15.9245     6.2988    -8.7735 C.3     
  53 O53            9.4838    -2.8796    -0.2661 O.3     
  54 S54            9.4305    -4.1870     0.5112 S.o2    
  55 O55           10.7617    -4.6824     0.5549 O.2     
  56 O56            8.6582    -3.9302     1.6760 O.2     
  57 O57            8.6311    -5.1761    -0.3250 O.3     
  58 Na58           9.6245    -5.9021    -1.8890 Du      
  59 O59           20.1064     1.8006   -11.7166 O.3     
  60 S60           20.8574     1.0185   -12.7848 S.o2    
  61 O61           20.3904    -0.3211   -12.7040 O.2     
  62 O62           20.7894     1.7950   -13.9729 O.2     
  63 O63           22.3228     0.9884   -12.3744 O.3     
  64 Na64          22.7191    -0.2642   -10.8797 Du      
  65 H65           -1.0054     1.8661    -0.1142 H       
  66 H66           -0.9604    -0.5904    -0.1502 H       
  67 H67            1.1712    -1.8022    -0.1870 H       
  68 H68            1.0884     3.1516    -0.1047 H       
  69 H69            6.7399     0.1971     1.5602 H       
  70 H70            8.8405    -1.0777     1.5193 H       
  71 H71            7.5457    -3.1211    -2.0078 H       
  72 H72            5.4378    -1.8580    -1.9740 H       
  73 H73           18.4899     5.5444    -9.8387 H       
  74 H74           21.3864     7.8273    -8.7567 H       
  75 H75           21.0630     6.3099    -9.6292 H       
  76 H76           21.3654     9.2136   -15.4233 H       
  77 H77           21.7150    11.6219   -15.5988 H       
  78 H78           21.8001    13.0304   -13.5883 H       
  79 H79           21.5357    12.0354   -11.3563 H       
  80 H80           18.9872     5.9053   -13.2095 H       
  81 H81           18.6433     3.4746   -13.0969 H       
  82 H82           21.9987     3.1096   -10.4699 H       
  83 H83           22.3570     5.5384   -10.5790 H       
  84 H84            5.9539     3.0464     0.2776 H       
  85 H85            6.7625     1.4676     0.4260 H       
  86 H86            6.6660     1.1868    -2.0358 H       
  87 H87            5.8574     2.7656    -2.1842 H       
  88 H88            7.8258     3.8702    -1.1576 H       
  89 H89            8.6344     2.2914    -1.0092 H       
  90 H90            8.5379     2.0107    -3.4710 H       
  91 H91            7.7293     3.5894    -3.6194 H       
  92 H92            9.6977     4.6940    -2.5928 H       
  93 H93           10.5063     3.1153    -2.4444 H       
  94 H94           10.4098     2.8345    -4.9062 H       
  95 H95            9.6012     4.4132    -5.0546 H       
  96 H96           11.5696     5.5178    -4.0279 H       
  97 H97           12.3782     3.9391    -3.8796 H       
  98 H98           12.2817     3.6583    -6.3414 H       
  99 H99           11.4731     5.2371    -6.4898 H       
 100 H100          13.4415     6.3417    -5.4631 H       
 101 H101          14.2501     4.7629    -5.3148 H       
 102 H102          14.1536     4.4821    -7.7766 H       
 103 H103          13.3450     6.0609    -7.9249 H       
 104 H104          15.3134     7.1655    -6.8983 H       
 105 H105          16.1220     5.5867    -6.7499 H       
 106 H106          15.2169     6.8847    -9.3601 H       
 107 H107          16.0255     5.3059    -9.2118 H       
@<TRIPOS>BOND
   1    1    2 ar
   2    1    6 ar
   3    1   65 1
   4    2    3 ar
   5    2   66 1
   6    3    4 ar
   7    3   67 1
   8    4    5 ar
   9    4    7 1
  10    5    6 ar
  11    5   10 1
  12    6   68 1
  13    7    8 2
  14    8    9 1
  15    8   12 1
  16    9   10 am
  17    9   41 1
  18   10   11 2
  19   12   13 ar
  20   12   17 ar
  21   13   14 ar
  22   13   69 1
  23   14   15 ar
  24   14   70 1
  25   15   16 ar
  26   15   53 1
  27   16   17 ar
  28   16   71 1
  29   17   72 1
  30   18   19 1
  31   18   20 1
  32   18   52 1
  33   19   22 2
  34   19   73 1
  35   20   21 2
  36   21   22 1
  37   22   23 1
  38   23   24 1
  39   23   74 1
  40   23   75 1
  41   24   25 am
  42   24   26 1
  43   25   34 2
  44   25   29 1
  45   26   27 2
  46   26   35 1
  47   27   28 1
  48   28   29 ar
  49   28   30 ar
  50   29   33 ar
  51   30   31 ar
  52   30   76 1
  53   31   32 ar
  54   31   77 1
  55   32   33 ar
  56   32   78 1
  57   33   79 1
  58   35   36 ar
  59   35   40 ar
  60   36   37 ar
  61   36   80 1
  62   37   38 ar
  63   37   81 1
  64   38   39 ar
  65   38   59 1
  66   39   40 ar
  67   39   82 1
  68   40   83 1
  69   41   42 1
  70   41   84 1
  71   41   85 1
  72   42   43 1
  73   42   86 1
  74   42   87 1
  75   43   44 1
  76   43   88 1
  77   43   89 1
  78   44   45 1
  79   44   90 1
  80   44   91 1
  81   45   46 1
  82   45   92 1
  83   45   93 1
  84   46   47 1
  85   46   94 1
  86   46   95 1
  87   47   48 1
  88   47   96 1
  89   47   97 1
  90   48   49 1
  91   48   98 1
  92   48   99 1
  93   49   50 1
  94   49  100 1
  95   49  101 1
  96   50   51 1
  97   50  102 1
  98   50  103 1
  99   51   52 1
 100   51  104 1
 101   51  105 1
 102   52  106 1
 103   52  107 1
 104   53   54 1
 105   54   55 2
 106   54   56 2
 107   54   57 1
 108   57   58 1
 109   59   60 1
 110   60   61 2
 111   60   62 2
 112   60   63 1
 113   63   64 1

#	End of record

