#	Name: ASD03731586
#	Creating user name:	WinNT
#	Creation time:	15. 06. 2019 20:46

#	Modifying user name:	WinNT
#	Modification time:	15. 06. 2019 20:46

#	Program:	/corina/corina34_cracker 3.40 0067  02.08.2006

@<TRIPOS>MOLECULE
ASD03731586
  37   38    0    0    0
SMALL
NO_CHARGES


@<TRIPOS>ATOM
   1 C1            -0.1362     1.4672     0.0333 C.2     
   2 C2            -0.0851    -0.0063     0.0191 C.ar    
   3 C3             1.1401    -0.6649    -0.1384 C.ar    
   4 C4             1.1828    -2.0445    -0.1505 C.ar    
   5 C5             0.0129    -2.7784    -0.0068 C.ar    
   6 C6            -1.2079    -2.1270     0.1502 C.ar    
   7 C7            -1.2596    -0.7502     0.1688 C.ar    
   8 O8             0.8870     2.1122    -0.0920 O.2     
   9 N9            -1.3176     2.0991     0.1796 N.am    
  10 S10           -1.3749     3.7540     0.1955 S.o2    
  11 O11           -2.7501     4.0552     0.3893 O.2     
  12 O12           -0.4000     4.1292     1.1588 O.2     
  13 C13           -0.8451     4.2414    -1.4696 C.3     
  14 F14           -2.3431    -2.8463     0.2892 F       
  15 F15            2.2787     0.0486    -0.2788 F       
  16 O16            0.0593    -4.1349    -0.0197 O.3     
  17 C17           -0.1526    -4.7696    -1.2035 C.ar    
  18 C18           -0.0464    -6.1556    -1.2805 C.ar    
  19 C19           -0.2630    -6.7980    -2.4885 C.ar    
  20 C20           -0.5842    -6.0619    -3.6154 C.ar    
  21 C21           -0.6896    -4.6848    -3.5385 C.ar    
  22 C22           -0.4801    -4.0388    -2.3341 C.ar    
  23 O23            0.2698    -6.8773    -0.1722 O.3     
  24 C24            0.3615    -8.2951    -0.3256 C.3     
  25 Cl25          -0.8549    -6.8683    -5.1288 Cl      
  26 H26            2.1274    -2.5538    -0.2724 H       
  27 H27           -2.2064    -0.2462     0.2951 H       
  28 H28           -2.1342     1.5846     0.2755 H       
  29 H29           -1.5273     3.8176    -2.2065 H       
  30 H30           -0.8531     5.3284    -1.5498 H       
  31 H31            0.1635     3.8709    -1.6529 H       
  32 H32           -0.1809    -7.8730    -2.5509 H       
  33 H33           -0.9405    -4.1135    -4.4200 H       
  34 H34           -0.5677    -2.9639    -2.2756 H       
  35 H35            0.6194    -8.7482     0.6316 H       
  36 H36           -0.5971    -8.6864    -0.6663 H       
  37 H37            1.1321    -8.5321    -1.0591 H       
@<TRIPOS>BOND
   1    1    2 1
   2    1    8 2
   3    1    9 am
   4    2    3 ar
   5    2    7 ar
   6    3    4 ar
   7    3   15 1
   8    4    5 ar
   9    4   26 1
  10    5    6 ar
  11    5   16 1
  12    6    7 ar
  13    6   14 1
  14    7   27 1
  15    9   10 am
  16    9   28 1
  17   10   11 2
  18   10   12 2
  19   10   13 1
  20   13   29 1
  21   13   30 1
  22   13   31 1
  23   16   17 1
  24   17   18 ar
  25   17   22 ar
  26   18   19 ar
  27   18   23 1
  28   19   20 ar
  29   19   32 1
  30   20   21 ar
  31   20   25 1
  32   21   22 ar
  33   21   33 1
  34   22   34 1
  35   23   24 1
  36   24   35 1
  37   24   36 1
  38   24   37 1

#	End of record

