#	Name: ASD04942001
#	Creating user name:	WinNT
#	Creation time:	15. 06. 2019 20:56

#	Modifying user name:	WinNT
#	Modification time:	15. 06. 2019 20:56

#	Program:	/corina/corina34_cracker 3.40 0067  02.08.2006

@<TRIPOS>MOLECULE
ASD04942001
  44   47    0    0    0
SMALL
NO_CHARGES


@<TRIPOS>ATOM
   1 C1            -0.1824     1.8449     2.3484 C.ar    
   2 C2            -0.1930     0.5199     2.7577 C.ar    
   3 C3             0.9875    -0.1630     2.9573 C.ar    
   4 C4             2.2050     0.4768     2.7474 C.ar    
   5 C5             2.2134     1.8183     2.3325 C.ar    
   6 C6             1.0131     2.4966     2.1351 C.ar    
   7 N7             3.5156     0.0579     2.8640 N.pl3   
   8 C8             4.3703     1.0683     2.5431 C.2     
   9 C9             3.6322     2.1991     2.2007 C.2     
  10 C10            4.1403     3.4573     1.8070 C.2     
  11 C11            3.1935     4.5800     1.4691 C.3     
  12 O12            3.9545     5.7595     1.0974 O.3     
  13 C13            3.2526     6.8602     0.7639 C.2     
  14 C14            3.9594     8.0965     0.3751 C.ar    
  15 O15            2.0382     6.8353     0.7832 O.2     
  16 O16            5.3401     3.6341     1.7409 O.2     
  17 N17            5.2857     8.1615     0.4547 N.ar    
  18 C18            5.9131     9.2664     0.1069 C.ar    
  19 C19            5.1977    10.3672    -0.3431 C.ar    
  20 N20            3.8808    10.3180    -0.4271 N.ar    
  21 C21            3.2350     9.2085    -0.0863 C.ar    
  22 N22            1.8566     9.1525    -0.1731 N.pl3   
  23 C23            5.8431     0.9798     2.5566 C.ar    
  24 C24            6.4848    -0.1291     1.9994 C.ar    
  25 C25            7.8619    -0.2048     2.0152 C.ar    
  26 C26            8.6077     0.8142     2.5813 C.ar    
  27 C27            7.9789     1.9153     3.1355 C.ar    
  28 C28            6.6028     2.0073     3.1217 C.ar    
  29 H29           -1.1149     2.3669     2.1919 H       
  30 H30           -1.1353     0.0185     2.9221 H       
  31 H31            0.9674    -1.1945     3.2768 H       
  32 H32            1.0191     3.5282     1.8156 H       
  33 H33            3.7893    -0.8319     3.1364 H       
  34 H34            2.5574     4.2806     0.6362 H       
  35 H35            2.5737     4.8061     2.3367 H       
  36 H36            6.9900     9.3159     0.1727 H       
  37 H37            5.7207    11.2689    -0.6256 H       
  38 H38            1.3358     9.9706    -0.1551 H       
  39 H39            1.4101     8.2950    -0.2521 H       
  40 H40            5.9040    -0.9252     1.5575 H       
  41 H41            8.3593    -1.0616     1.5851 H       
  42 H42            9.6857     0.7496     2.5909 H       
  43 H43            8.5673     2.7065     3.5763 H       
  44 H44            6.1136     2.8694     3.5503 H       
@<TRIPOS>BOND
   1    1    2 ar
   2    1    6 ar
   3    1   29 1
   4    2    3 ar
   5    2   30 1
   6    3    4 ar
   7    3   31 1
   8    4    5 ar
   9    4    7 1
  10    5    6 ar
  11    5    9 1
  12    6   32 1
  13    7    8 1
  14    7   33 1
  15    8    9 2
  16    8   23 1
  17    9   10 1
  18   10   11 1
  19   10   16 2
  20   11   12 1
  21   11   34 1
  22   11   35 1
  23   12   13 1
  24   13   14 1
  25   13   15 2
  26   14   17 ar
  27   14   21 ar
  28   17   18 ar
  29   18   19 ar
  30   18   36 1
  31   19   20 ar
  32   19   37 1
  33   20   21 ar
  34   21   22 1
  35   22   38 1
  36   22   39 1
  37   23   24 ar
  38   23   28 ar
  39   24   25 ar
  40   24   40 1
  41   25   26 ar
  42   25   41 1
  43   26   27 ar
  44   26   42 1
  45   27   28 ar
  46   27   43 1
  47   28   44 1

#	End of record

