#	Name: ASD00844432
#	Creating user name:	WinNT
#	Creation time:	15. 06. 2019 18:50

#	Modifying user name:	WinNT
#	Modification time:	15. 06. 2019 18:50

#	Program:	/corina/corina34_cracker 3.40 0067  02.08.2006

@<TRIPOS>MOLECULE
ASD00844432
 101  106    0    0    0
SMALL
NO_CHARGES


@<TRIPOS>ATOM
   1 F1            -0.0824    -3.1450     4.7170 F       
   2 C2            -0.0145     1.3802     0.0273 C.ar    
   3 C3             0.0031    -0.0067     0.0119 C.ar    
   4 C4             1.2148    -0.6827    -0.0060 C.ar    
   5 C5             2.4000     0.0266    -0.0084 C.ar    
   6 C6             2.3797     1.4092     0.0075 C.ar    
   7 C7             1.1739     2.0850     0.0249 C.ar    
   8 C8             1.2376    -2.1894    -0.0223 C.3     
   9 C9             0.4953    -2.7178    -1.2310 C.2     
  10 N10            2.6177    -2.6806    -0.0126 N.am    
  11 C11            3.4633    -2.3341    -1.0034 C.2     
  12 N12            4.7589    -2.7002    -0.9424 N.am    
  13 O13            3.0572    -1.6912    -1.9521 O.2     
  14 C14            5.2906    -3.3760     0.2490 C.3     
  15 C15            6.5170    -2.6050     0.7471 C.3     
  16 C16            7.5240    -2.4623    -0.3965 C.3     
  17 C17            6.8886    -1.6712    -1.5422 C.3     
  18 C18            5.6651    -2.4366    -2.0685 C.3     
  19 N19            8.7158    -1.7522     0.0866 N.3     
  20 C20            9.7547    -1.7003    -0.9515 C.3     
  21 C21           10.9448    -0.8862    -0.4381 C.3     
  22 N22           11.4629    -1.5027     0.7911 N.3     
  23 C23           10.4240    -1.5546     1.8292 C.3     
  24 C24            9.2340    -2.3687     1.3158 C.3     
  25 C25           12.6547    -0.7926     1.2742 C.3     
  26 O26            0.7757    -2.5150    -2.3935 O.2     
  27 N27           -0.5320    -3.4539    -0.7752 N.am    
  28 C28            0.4671    -2.7435     1.1548 C.ar    
  29 C29           -0.5781    -3.4902     0.6206 C.ar    
  30 C30            0.6340    -2.6267     2.5171 C.ar    
  31 C31           -0.2447    -3.2575     3.3805 C.ar    
  32 C32           -1.3014    -4.0124     2.8614 C.ar    
  33 C33           -1.4645    -4.1269     1.4812 C.ar    
  34 C34           -0.9812    -5.8428    -2.0659 C.ar    
  35 C35            0.1989    -5.9965    -2.7792 C.ar    
  36 C36           -1.6544    -6.9537    -1.5940 C.ar    
  37 C37           -1.1542    -8.2195    -1.8306 C.ar    
  38 C38            0.0259    -8.3785    -2.5437 C.ar    
  39 C39            0.7027    -7.2660    -3.0184 C.ar    
  40 O40            0.5172    -9.6240    -2.7765 O.3     
  41 O41            0.8602    -4.9038    -3.2434 O.3     
  42 C42           -0.2326   -10.7246    -2.2582 C.3     
  43 C43            2.0686    -5.1368    -3.9697 C.3     
  44 C44            2.6661    -3.7984    -4.4084 C.3     
  45 C45           13.0171    -1.2971     2.6724 C.3     
  46 C46           14.2584    -0.5575     3.1756 C.3     
  47 C47           -2.2155    -4.6686     3.7472 C.1     
  48 N48           -2.9405    -5.1891     4.4500 N.1     
  49 O49           -1.1643    -0.7023     0.0147 O.3     
  50 C50           -2.3733     0.0593     0.0339 C.3     
  51 C51           -3.5737    -0.8892     0.0342 C.3     
  52 F52           -3.5410    -1.6832    -1.1172 F       
  53 F53           -3.5206    -1.7083     1.1671 F       
  54 S54           -1.6183    -4.2297    -1.7553 S.o2    
  55 O55           -2.7992    -4.4061    -0.9847 O.2     
  56 O56           -1.5974    -3.5435    -2.9995 O.2     
  57 H57           -0.9563     1.9086     0.0367 H       
  58 H58            3.3433    -0.4991    -0.0223 H       
  59 H59            3.3075     1.9620     0.0064 H       
  60 H60            1.1607     3.1649     0.0372 H       
  61 H61            2.9231    -3.2551     0.7068 H       
  62 H62            4.5292    -3.3947     1.0288 H       
  63 H63            5.5791    -4.3954    -0.0074 H       
  64 H64            6.2112    -1.6159     1.0880 H       
  65 H65            6.9780    -3.1482     1.5720 H       
  66 H66            7.8107    -3.4515    -0.7535 H       
  67 H67            6.5792    -0.6909    -1.1797 H       
  68 H68            7.6140    -1.5498    -2.3467 H       
  69 H69            5.9868    -3.3781    -2.5137 H       
  70 H70            5.1506    -1.8334    -2.8165 H       
  71 H71           10.0820    -2.7124    -1.1894 H       
  72 H72            9.3506    -1.2284    -1.8471 H       
  73 H73           11.7285    -0.8706    -1.1955 H       
  74 H74           10.6234     0.1335    -0.2260 H       
  75 H75           10.8281    -2.0265     2.7248 H       
  76 H76           10.0967    -0.5425     2.0671 H       
  77 H77            8.4502    -2.3843     2.0731 H       
  78 H78            9.5554    -3.3884     1.1037 H       
  79 H79           13.4871    -0.9759     0.5948 H       
  80 H80           12.4485     0.2769     1.3159 H       
  81 H81            1.4519    -2.0423     2.9120 H       
  82 H82           -2.2806    -4.7100     1.0807 H       
  83 H83           -2.5728    -6.8320    -1.0389 H       
  84 H84           -1.6817    -9.0861    -1.4602 H       
  85 H85            1.6210    -7.3877    -3.5738 H       
  86 H86           -0.3053   -10.6363    -1.1742 H       
  87 H87           -1.2329   -10.7187    -2.6912 H       
  88 H88            0.2685   -11.6582    -2.5140 H       
  89 H89            2.7805    -5.6609    -3.3320 H       
  90 H90            1.8528    -5.7439    -4.8489 H       
  91 H91            3.5879    -3.9761    -4.9623 H       
  92 H92            1.9543    -3.2742    -5.0461 H       
  93 H93            2.8819    -3.1912    -3.5292 H       
  94 H94           12.1847    -1.1138     3.3519 H       
  95 H95           13.2234    -2.3666     2.6307 H       
  96 H96           15.0908    -0.7408     2.4962 H       
  97 H97           14.0522     0.5120     3.2173 H       
  98 H98           14.5166    -0.9169     4.1717 H       
  99 H99           -2.3987     0.6779     0.9310 H       
 100 H100          -2.4147     0.6975    -0.8488 H       
 101 H101          -4.4959    -0.3083     0.0489 H       
@<TRIPOS>BOND
   1    1   31 1
   2    2    3 ar
   3    2    7 ar
   4    2   57 1
   5    3    4 ar
   6    3   49 1
   7    4    5 ar
   8    4    8 1
   9    5    6 ar
  10    5   58 1
  11    6    7 ar
  12    6   59 1
  13    7   60 1
  14    8    9 1
  15    8   10 1
  16    8   28 1
  17    9   26 2
  18    9   27 am
  19   10   11 am
  20   10   61 1
  21   11   12 am
  22   11   13 2
  23   12   14 1
  24   12   18 1
  25   14   15 1
  26   14   62 1
  27   14   63 1
  28   15   16 1
  29   15   64 1
  30   15   65 1
  31   16   17 1
  32   16   19 1
  33   16   66 1
  34   17   18 1
  35   17   67 1
  36   17   68 1
  37   18   69 1
  38   18   70 1
  39   19   20 1
  40   19   24 1
  41   20   21 1
  42   20   71 1
  43   20   72 1
  44   21   22 1
  45   21   73 1
  46   21   74 1
  47   22   23 1
  48   22   25 1
  49   23   24 1
  50   23   75 1
  51   23   76 1
  52   24   77 1
  53   24   78 1
  54   25   45 1
  55   25   79 1
  56   25   80 1
  57   27   54 am
  58   27   29 1
  59   28   29 ar
  60   28   30 ar
  61   29   33 ar
  62   30   31 ar
  63   30   81 1
  64   31   32 ar
  65   32   33 ar
  66   32   47 1
  67   33   82 1
  68   34   35 ar
  69   34   36 ar
  70   34   54 1
  71   35   41 1
  72   35   39 ar
  73   36   37 ar
  74   36   83 1
  75   37   38 ar
  76   37   84 1
  77   38   39 ar
  78   38   40 1
  79   39   85 1
  80   40   42 1
  81   41   43 1
  82   42   86 1
  83   42   87 1
  84   42   88 1
  85   43   44 1
  86   43   89 1
  87   43   90 1
  88   44   91 1
  89   44   92 1
  90   44   93 1
  91   45   46 1
  92   45   94 1
  93   45   95 1
  94   46   96 1
  95   46   97 1
  96   46   98 1
  97   47   48 3
  98   49   50 1
  99   50   51 1
 100   50   99 1
 101   50  100 1
 102   51   52 1
 103   51   53 1
 104   51  101 1
 105   54   55 2
 106   54   56 2

#	End of record

