#	Name: ASD01811807
#	Creating user name:	WinNT
#	Creation time:	15. 06. 2019 19:27

#	Modifying user name:	WinNT
#	Modification time:	15. 06. 2019 19:27

#	Program:	/corina/corina34_cracker 3.40 0067  02.08.2006

@<TRIPOS>MOLECULE
ASD01811807
  50   54    0    0    0
SMALL
NO_CHARGES


@<TRIPOS>ATOM
   1 C1            -0.0167     1.3805     0.0096 C.ar    
   2 C2             0.0021    -0.0041     0.0020 C.ar    
   3 C3             1.2075    -0.6836    -0.0127 C.ar    
   4 C4             2.3988     0.0116    -0.0199 C.ar    
   5 C5             2.3881     1.4079    -0.0127 C.ar    
   6 C6             1.1657     2.0837     0.0021 C.ar    
   7 C7            -1.2939    -0.7731     0.0103 C.3     
   8 C8             1.2187    -2.1906    -0.0204 C.3     
   9 C9             1.0854    -2.6867    -1.4371 C.ar    
  10 C10            2.2171    -2.9044    -2.2014 C.ar    
  11 C11            2.0980    -3.3586    -3.5003 C.ar    
  12 C12            0.8406    -3.5970    -4.0383 C.ar    
  13 C13           -0.2938    -3.3780    -3.2684 C.ar    
  14 C14           -0.1682    -2.9286    -1.9684 C.ar    
  15 N15            0.7165    -4.0577    -5.3565 N.pl3   
  16 C16           -0.4420    -4.3282    -5.9993 C.2     
  17 C17           -0.1319    -4.7467    -7.2482 C.2     
  18 C18            1.2616    -4.7319    -7.3739 C.2     
  19 N19            1.7705    -4.3134    -6.2431 N.2     
  20 C20            3.4707     2.4099    -0.0174 C.2     
  21 N21            2.9565     3.6519    -0.0065 N.am    
  22 C22            1.4924     3.5561     0.0065 C.3     
  23 O23            4.6582     2.1497    -0.0293 O.2     
  24 C24            3.6959     4.8404    -0.0067 C.ar    
  25 C25            4.0749     5.4257     1.1965 C.ar    
  26 C26            4.8053     6.6001     1.1916 C.ar    
  27 C27            5.1576     7.1913    -0.0076 C.ar    
  28 C28            4.7814     6.6112    -1.2052 C.ar    
  29 C29            4.0575     5.4347    -1.2081 C.ar    
  30 F30            3.7297     4.8484     2.3682 F       
  31 H31           -0.9590     1.9081     0.0170 H       
  32 H32            3.3374    -0.5226    -0.0306 H       
  33 H33           -1.6162    -0.9530    -1.0154 H       
  34 H34           -1.1473    -1.7266     0.5176 H       
  35 H35           -2.0556    -0.1959     0.5345 H       
  36 H36            2.1568    -2.5491     0.4034 H       
  37 H37            0.3852    -2.5631     0.5750 H       
  38 H38            3.1950    -2.7187    -1.7823 H       
  39 H39            2.9822    -3.5278    -4.0969 H       
  40 H40           -1.2733    -3.5622    -3.6843 H       
  41 H41           -1.0502    -2.7580    -1.3689 H       
  42 H42           -1.4362    -4.2287    -5.5894 H       
  43 H43           -0.8357    -5.0403    -8.0130 H       
  44 H44            1.8207    -5.0130    -8.2541 H       
  45 H45            1.0778     4.0343    -0.8810 H       
  46 H46            1.0943     4.0255     0.9061 H       
  47 H47            5.1004     7.0559     2.1252 H       
  48 H48            5.7278     8.1085    -0.0091 H       
  49 H49            5.0579     7.0763    -2.1399 H       
  50 H50            3.7647     4.9826    -2.1443 H       
@<TRIPOS>BOND
   1    1    2 ar
   2    1    6 ar
   3    1   31 1
   4    2    3 ar
   5    2    7 1
   6    3    4 ar
   7    3    8 1
   8    4    5 ar
   9    4   32 1
  10    5    6 ar
  11    5   20 1
  12    6   22 1
  13    7   33 1
  14    7   34 1
  15    7   35 1
  16    8    9 1
  17    8   36 1
  18    8   37 1
  19    9   10 ar
  20    9   14 ar
  21   10   11 ar
  22   10   38 1
  23   11   12 ar
  24   11   39 1
  25   12   13 ar
  26   12   15 1
  27   13   14 ar
  28   13   40 1
  29   14   41 1
  30   15   16 1
  31   15   19 1
  32   16   17 2
  33   16   42 1
  34   17   18 1
  35   17   43 1
  36   18   19 2
  37   18   44 1
  38   20   21 am
  39   20   23 2
  40   21   22 1
  41   21   24 1
  42   22   45 1
  43   22   46 1
  44   24   25 ar
  45   24   29 ar
  46   25   26 ar
  47   25   30 1
  48   26   27 ar
  49   26   47 1
  50   27   28 ar
  51   27   48 1
  52   28   29 ar
  53   28   49 1
  54   29   50 1

#	End of record

