#	Name: ASD03091190
#	Creating user name:	WinNT
#	Creation time:	15. 06. 2019 20:30

#	Modifying user name:	WinNT
#	Modification time:	15. 06. 2019 20:30

#	Program:	/corina/corina34_cracker 3.40 0067  02.08.2006

@<TRIPOS>MOLECULE
ASD03091190
  54   57    0    0    0
SMALL
NO_CHARGES


@<TRIPOS>ATOM
   1 C1            -0.0948     1.3917    -0.0148 C.2     
   2 C2            -0.0334    -0.1139     0.0030 C.3     
   3 O3             0.9298     2.0402    -0.0385 O.2     
   4 N4            -1.2885     2.0176    -0.0098 N.am    
   5 C5            -1.3482     3.4813    -0.0271 C.3     
   6 C6            -2.6816     3.9302    -0.6282 C.3     
   7 C7            -1.2282     4.0135     1.4024 C.3     
   8 N8             3.2671    -1.1110     1.2288 N.2     
   9 C9             2.0283    -0.7298     1.1600 C.2     
  10 N10            1.3664    -0.5458    -0.0131 N.am    
  11 C11            1.9891    -0.7585    -1.1958 C.2     
  12 C12            3.3939    -1.1914    -1.1528 C.ar    
  13 C13            4.1245    -1.4375    -2.3130 C.ar    
  14 C14            5.4442    -1.8435    -2.2097 C.ar    
  15 C15            6.0370    -2.0047    -0.9575 C.ar    
  16 C16            5.3320    -1.7673     0.1878 C.ar    
  17 C17            3.9993    -1.3563     0.1127 C.ar    
  18 O18            1.4089    -0.5982    -2.2539 O.2     
  19 N19            7.2695    -1.5692    -6.0732 N.3     
  20 C20            6.0740    -2.3910    -5.8303 C.3     
  21 C21            5.3574    -1.9370    -4.5681 C.3     
  22 N22            6.1866    -2.0937    -3.3672 N.3     
  23 C23            7.3667    -1.2204    -3.4350 C.3     
  24 C24            8.5559    -1.9784    -4.0057 C.3     
  25 C25            8.4539    -2.2225    -5.4978 C.3     
  26 C26            7.1684    -0.1704    -5.7160 C.3     
  27 C27            7.0151     0.0316    -4.2175 C.3     
  28 H28           -0.5183    -0.4867     0.9052 H       
  29 H29           -0.5456    -0.5088    -0.8744 H       
  30 H30           -2.1080     1.4989     0.0051 H       
  31 H31           -0.5281     3.8713    -0.6300 H       
  32 H32           -3.5016     3.5402    -0.0253 H       
  33 H33           -2.7260     5.0193    -0.6410 H       
  34 H34           -2.7670     3.5511    -1.6466 H       
  35 H35           -0.2783     3.6936     1.8306 H       
  36 H36           -1.2727     5.1025     1.3895 H       
  37 H37           -2.0483     3.6234     2.0053 H       
  38 H38            1.4958    -0.5498     2.0822 H       
  39 H39            3.6662    -1.3133    -3.2830 H       
  40 H40            7.0673    -2.3220    -0.8927 H       
  41 H41            5.8045    -1.8971     1.1502 H       
  42 H42            5.3972    -2.3002    -6.6799 H       
  43 H43            6.3716    -3.4336    -5.7190 H       
  44 H44            5.0855    -0.8869    -4.6749 H       
  45 H45            4.4474    -2.5250    -4.4480 H       
  46 H46            7.6171    -0.9126    -2.4198 H       
  47 H47            9.4627    -1.4074    -3.8063 H       
  48 H48            8.6332    -2.9403    -3.4988 H       
  49 H49            8.3918    -3.2955    -5.6795 H       
  50 H50            9.3475    -1.8316    -5.9843 H       
  51 H51            8.0674     0.3462    -6.0522 H       
  52 H52            6.3046     0.2619    -6.2212 H       
  53 H53            5.9828     0.3066    -4.0008 H       
  54 H54            7.6701     0.8431    -3.9005 H       
@<TRIPOS>BOND
   1    1    2 1
   2    1    3 2
   3    1    4 am
   4    2   10 1
   5    2   28 1
   6    2   29 1
   7    4    5 1
   8    4   30 1
   9    5    6 1
  10    5    7 1
  11    5   31 1
  12    6   32 1
  13    6   33 1
  14    6   34 1
  15    7   35 1
  16    7   36 1
  17    7   37 1
  18    8    9 2
  19    8   17 1
  20    9   10 1
  21    9   38 1
  22   10   11 am
  23   11   12 1
  24   11   18 2
  25   12   13 ar
  26   12   17 ar
  27   13   14 ar
  28   13   39 1
  29   14   15 ar
  30   14   22 1
  31   15   16 ar
  32   15   40 1
  33   16   17 ar
  34   16   41 1
  35   19   20 1
  36   19   25 1
  37   19   26 1
  38   20   21 1
  39   20   42 1
  40   20   43 1
  41   21   22 1
  42   21   44 1
  43   21   45 1
  44   22   23 1
  45   23   24 1
  46   23   27 1
  47   23   46 1
  48   24   25 1
  49   24   47 1
  50   24   48 1
  51   25   49 1
  52   25   50 1
  53   26   27 1
  54   26   51 1
  55   26   52 1
  56   27   53 1
  57   27   54 1

#	End of record

