#	Name: ASD01816448
#	Creating user name:	WinNT
#	Creation time:	15. 06. 2019 19:35

#	Modifying user name:	WinNT
#	Modification time:	15. 06. 2019 19:35

#	Program:	/corina/corina34_cracker 3.40 0067  02.08.2006

@<TRIPOS>MOLECULE
ASD01816448
  53   58    0    0    0
SMALL
NO_CHARGES


@<TRIPOS>ATOM
   1 C1            -0.0167     1.3813     0.0096 C.ar    
   2 C2             0.0021    -0.0041     0.0020 C.ar    
   3 C3             1.1983    -0.6909    -0.0131 C.ar    
   4 C4             2.4015     0.0060    -0.0203 C.ar    
   5 C5             2.3790     1.4106    -0.0126 C.ar    
   6 C6             1.1663     2.0916     0.0022 C.ar    
   7 N7             3.6053    -0.6771    -0.0345 N.pl3   
   8 C8             4.7970    -0.0585    -0.0416 C.2     
   9 C9             4.9000     1.3103    -0.0352 C.2     
  10 C10            3.6670     2.1302    -0.0205 C.2     
  11 C11            5.9971     2.2730    -0.0396 C.2     
  12 N12            5.4245     3.4961    -0.0285 N.am    
  13 N13            4.0322     3.3798    -0.0172 N.2     
  14 C14            6.1236     4.7035    -0.0275 C.ar    
  15 O15            7.1913     2.0231    -0.0507 O.2     
  16 C16            3.5779    -2.1419    -0.0416 C.3     
  17 C17            3.5558    -2.6370    -1.4648 C.ar    
  18 C18            4.7438    -2.8860    -2.1272 C.ar    
  19 C19            4.7267    -3.3394    -3.4317 C.ar    
  20 C20            3.5152    -3.5455    -4.0778 C.ar    
  21 C21            2.3241    -3.2950    -3.4099 C.ar    
  22 C22            2.3475    -2.8467    -2.1037 C.ar    
  23 N23            3.4947    -4.0052    -5.4019 N.pl3   
  24 C24            2.3900    -4.2462    -6.1437 C.2     
  25 C25            2.7969    -4.6752    -7.3609 C.2     
  26 C26            4.1959    -4.6975    -7.3642 C.2     
  27 N27            4.6150    -4.2906    -6.1931 N.2     
  28 C28            5.4236     5.9047    -0.0098 C.ar    
  29 C29            6.1292     7.0949    -0.0090 C.ar    
  30 C30            7.5165     7.0424    -0.0261 C.ar    
  31 C31            8.1464     5.8135    -0.0432 C.ar    
  32 N32            7.4472     4.6949    -0.0380 N.ar    
  33 C33            9.6519     5.7496    -0.0622 C.3     
  34 H34           -0.9602     1.9068     0.0169 H       
  35 H35           -0.9288    -0.5516     0.0083 H       
  36 H36            1.2004    -1.7709    -0.0189 H       
  37 H37            1.1506     3.1715     0.0084 H       
  38 H38            5.6983    -0.6535    -0.0523 H       
  39 H39            4.4655    -2.5243     0.4624 H       
  40 H40            2.6859    -2.4911     0.4785 H       
  41 H41            5.6859    -2.7255    -1.6241 H       
  42 H42            5.6549    -3.5331    -3.9488 H       
  43 H43            1.3802    -3.4541    -3.9100 H       
  44 H44            1.4213    -2.6516    -1.5836 H       
  45 H45            1.3667    -4.1196    -5.8222 H       
  46 H46            2.1551    -4.9516    -8.1843 H       
  47 H47            4.8222    -4.9950    -8.1923 H       
  48 H48            4.3436     5.9087     0.0028 H       
  49 H49            5.6126     8.0432     0.0042 H       
  50 H50            8.0970     7.9531    -0.0263 H       
  51 H51           10.0276     5.7264     0.9607 H       
  52 H52            9.9707     4.8489    -0.5869 H       
  53 H53           10.0464     6.6272    -0.5743 H       
@<TRIPOS>BOND
   1    1    2 ar
   2    1    6 ar
   3    1   34 1
   4    2    3 ar
   5    2   35 1
   6    3    4 ar
   7    3   36 1
   8    4    5 ar
   9    4    7 1
  10    5    6 ar
  11    5   10 1
  12    6   37 1
  13    7    8 1
  14    7   16 1
  15    8    9 2
  16    8   38 1
  17    9   10 1
  18    9   11 1
  19   10   13 2
  20   11   12 am
  21   11   15 2
  22   12   13 1
  23   12   14 1
  24   14   32 ar
  25   14   28 ar
  26   16   17 1
  27   16   39 1
  28   16   40 1
  29   17   18 ar
  30   17   22 ar
  31   18   19 ar
  32   18   41 1
  33   19   20 ar
  34   19   42 1
  35   20   21 ar
  36   20   23 1
  37   21   22 ar
  38   21   43 1
  39   22   44 1
  40   23   24 1
  41   23   27 1
  42   24   25 2
  43   24   45 1
  44   25   26 1
  45   25   46 1
  46   26   27 2
  47   26   47 1
  48   28   29 ar
  49   28   48 1
  50   29   30 ar
  51   29   49 1
  52   30   31 ar
  53   30   50 1
  54   31   32 ar
  55   31   33 1
  56   33   51 1
  57   33   52 1
  58   33   53 1

#	End of record

