#	Name: ASD09200049
#	Creating user name:	WinNT
#	Creation time:	15. 06. 2019 21:21

#	Modifying user name:	WinNT
#	Modification time:	15. 06. 2019 21:21

#	Program:	/corina/corina34_cracker 3.40 0067  02.08.2006

@<TRIPOS>MOLECULE
ASD09200049
  53   55    0    0    0
SMALL
NO_CHARGES


@<TRIPOS>ATOM
   1 C1            -0.2138     1.0562    -0.9151 C.ar    
   2 C2             0.0719     0.1282     0.0712 C.ar    
   3 C3            -0.8687    -0.1682     1.0434 C.ar    
   4 C4            -2.0964     0.4610     1.0342 C.ar    
   5 C5            -2.3902     1.3970     0.0438 C.ar    
   6 C6            -1.4379     1.6959    -0.9307 C.ar    
   7 C7            -3.7081     2.0761     0.0292 C.ar    
   8 N8            -3.9859     2.9706    -0.9192 N.ar    
   9 C9            -5.1619     3.5756    -0.9307 C.ar    
  10 C10           -6.1125     3.2731     0.0556 C.ar    
  11 N11           -5.8302     2.3834     0.9951 N.ar    
  12 C12           -4.6552     1.7753     1.0014 C.ar    
  13 N13           -7.3508     3.9077     0.0472 N.3     
  14 C14           -8.4399     2.9342    -0.1031 C.3     
  15 C15           -9.7706     3.6749    -0.2542 C.3     
  16 C16          -10.0071     4.5468     0.9820 C.3     
  17 C17           -8.8351     5.5189     1.1432 C.3     
  18 C18           -7.5316     4.7248     1.2539 C.3     
  19 N19          -11.2545     5.3049     0.8167 N.3     
  20 C20          -11.8267     5.6678     2.1201 C.3     
  21 C21          -12.7018     6.9131     1.9641 C.3     
  22 C22          -12.6773     4.5090     2.6441 C.3     
  23 Cl23          -1.7949     2.8606    -2.1675 Cl      
  24 C24            0.8146     1.3737    -1.9700 C.3     
  25 Cl25           1.6146    -0.6676     0.0892 Cl      
  26 N26           -5.4556     4.5104    -1.9190 N.pl3   
  27 N27           -4.5091     4.8455    -2.8452 N.3     
  28 H28           -0.6408    -0.8937     1.8103 H       
  29 H29           -2.8290     0.2284     1.7929 H       
  30 H30           -4.4281     1.0499     1.7687 H       
  31 H31           -8.2616     2.3235    -0.9881 H       
  32 H32           -8.4788     2.2938     0.7781 H       
  33 H33           -9.7374     4.3050    -1.1430 H       
  34 H34          -10.5806     2.9519    -0.3501 H       
  35 H35          -10.0792     3.9134     1.8661 H       
  36 H36           -8.7872     6.1780     0.2764 H       
  37 H37           -8.9768     6.1133     2.0458 H       
  38 H38           -7.5747     4.0760     2.1287 H       
  39 H39           -6.6935     5.4145     1.3544 H       
  40 H40          -11.1070     6.1238     0.2459 H       
  41 H41          -11.0217     5.8754     2.8252 H       
  42 H42          -13.5067     6.7054     1.2590 H       
  43 H43          -13.1263     7.1823     2.9312 H       
  44 H44          -12.0957     7.7386     1.5908 H       
  45 H45          -12.0539     3.6219     2.7553 H       
  46 H46          -13.1019     4.7783     3.6113 H       
  47 H47          -13.4823     4.3014     1.9391 H       
  48 H48            0.6840     0.7022    -2.8185 H       
  49 H49            0.6899     2.4050    -2.3002 H       
  50 H50            1.8137     1.2437    -1.5541 H       
  51 H51           -6.3324     4.9241    -1.9501 H       
  52 H52           -4.1737     4.0276    -3.3316 H       
  53 H53           -4.8649     5.5315    -3.4940 H       
@<TRIPOS>BOND
   1    1    2 ar
   2    1   24 1
   3    1    6 ar
   4    2    3 ar
   5    2   25 1
   6    3    4 ar
   7    3   28 1
   8    4    5 ar
   9    4   29 1
  10    5    6 ar
  11    5    7 1
  12    6   23 1
  13    7    8 ar
  14    7   12 ar
  15    8    9 ar
  16    9   10 ar
  17    9   26 1
  18   10   11 ar
  19   10   13 1
  20   11   12 ar
  21   12   30 1
  22   13   14 1
  23   13   18 1
  24   14   15 1
  25   14   31 1
  26   14   32 1
  27   15   16 1
  28   15   33 1
  29   15   34 1
  30   16   17 1
  31   16   19 1
  32   16   35 1
  33   17   18 1
  34   17   36 1
  35   17   37 1
  36   18   38 1
  37   18   39 1
  38   19   20 1
  39   19   40 1
  40   20   21 1
  41   20   22 1
  42   20   41 1
  43   21   42 1
  44   21   43 1
  45   21   44 1
  46   22   45 1
  47   22   46 1
  48   22   47 1
  49   24   48 1
  50   24   49 1
  51   24   50 1
  52   26   27 1
  53   26   51 1
  54   27   52 1
  55   27   53 1

#	End of record

