#	Name: ASD01880583
#	Creating user name:	WinNT
#	Creation time:	15. 06. 2019 19:41

#	Modifying user name:	WinNT
#	Modification time:	15. 06. 2019 19:41

#	Program:	/corina/corina34_cracker 3.40 0067  02.08.2006

@<TRIPOS>MOLECULE
ASD01880583
  55   58    0    0    0
SMALL
NO_CHARGES


@<TRIPOS>ATOM
   1 N1             0.0004     1.3133    -0.2014 N.ar    
   2 C2             0.0236    -0.0048    -0.2231 C.ar    
   3 N3             1.1380    -0.6836    -0.0321 N.ar    
   4 C4             2.2868    -0.0612     0.1910 C.ar    
   5 C5             2.3103     1.3194     0.2226 C.ar    
   6 C6             1.1132     2.0080     0.0165 C.ar    
   7 C7             3.5961     2.0642     0.4737 C.3     
   8 O8             4.6350     1.1316     0.7786 O.3     
   9 C9             5.8664     1.6424     1.0325 C.ar    
  10 C10            6.9235     0.7899     1.3363 C.ar    
  11 C11            8.1687     1.3078     1.5925 C.ar    
  12 C12            8.3830     2.6895     1.5503 C.ar    
  13 C13            7.3180     3.5412     1.2444 C.ar    
  14 C14            6.0719     3.0160     0.9833 C.ar    
  15 C15            9.4953     0.6818     1.9441 C.3     
  16 N16           10.4451     1.7904     2.0919 N.am    
  17 C17            9.7992     2.9468     1.8639 C.2     
  18 O18           10.3111     4.0487     1.9096 O.2     
  19 Br19          -1.5854    -0.9477    -0.5363 Br      
  20 N20            1.0854     3.3929     0.0383 N.3     
  21 C21           -0.1599     3.8851     0.6438 C.3     
  22 C22           -0.1171     5.4131     0.7215 C.3     
  23 N23            0.0626     5.9647    -0.6287 N.3     
  24 C24            1.3078     5.4725    -1.2343 C.3     
  25 C25            1.2650     3.9446    -1.3119 C.3     
  26 C26            0.0330     7.4333    -0.6056 C.3     
  27 C27           14.1672     1.3810     1.5052 C.3     
  28 C28           12.6855     1.5187     1.1495 C.3     
  29 C29           11.8638     1.6585     2.4325 C.3     
  30 H30            3.1935    -0.6269     0.3466 H       
  31 H31            3.8671     2.6318    -0.4165 H       
  32 H32            3.4627     2.7467     1.3131 H       
  33 H33            6.7643    -0.2778     1.3707 H       
  34 H34            7.4727     4.6095     1.2096 H       
  35 H35            5.2495     3.6747     0.7466 H       
  36 H36            9.4131     0.1313     2.8813 H       
  37 H37            9.8187     0.0154     1.1445 H       
  38 H38           -1.0082     3.5757     0.0334 H       
  39 H39           -0.2640     3.4728     1.6475 H       
  40 H40           -1.0518     5.7821     1.1437 H       
  41 H41            0.7151     5.7219     1.3542 H       
  42 H42            1.4119     5.8848    -2.2379 H       
  43 H43            2.1562     5.7820    -0.6238 H       
  44 H44            2.1997     3.5756    -1.7341 H       
  45 H45            0.4328     3.6358    -1.9446 H       
  46 H46            0.8357     7.8028     0.0325 H       
  47 H47            0.1682     7.8153    -1.6175 H       
  48 H48           -0.9268     7.7713    -0.2148 H       
  49 H49           14.7525     1.2814     0.5911 H       
  50 H50           14.4936     2.2662     2.0510 H       
  51 H51           14.3110     0.4973     2.1268 H       
  52 H52           12.5417     2.4025     0.5278 H       
  53 H53           12.3590     0.6335     0.6036 H       
  54 H54           12.1903     2.5437     2.9784 H       
  55 H55           12.0076     0.7748     3.0542 H       
@<TRIPOS>BOND
   1    1    2 ar
   2    1    6 ar
   3    2    3 ar
   4    2   19 1
   5    3    4 ar
   6    4    5 ar
   7    4   30 1
   8    5    6 ar
   9    5    7 1
  10    6   20 1
  11    7    8 1
  12    7   31 1
  13    7   32 1
  14    8    9 1
  15    9   10 ar
  16    9   14 ar
  17   10   11 ar
  18   10   33 1
  19   11   12 ar
  20   11   15 1
  21   12   13 ar
  22   12   17 1
  23   13   14 ar
  24   13   34 1
  25   14   35 1
  26   15   16 1
  27   15   36 1
  28   15   37 1
  29   16   17 am
  30   16   29 1
  31   17   18 2
  32   20   21 1
  33   20   25 1
  34   21   22 1
  35   21   38 1
  36   21   39 1
  37   22   23 1
  38   22   40 1
  39   22   41 1
  40   23   24 1
  41   23   26 1
  42   24   25 1
  43   24   42 1
  44   24   43 1
  45   25   44 1
  46   25   45 1
  47   26   46 1
  48   26   47 1
  49   26   48 1
  50   27   28 1
  51   27   49 1
  52   27   50 1
  53   27   51 1
  54   28   29 1
  55   28   52 1
  56   28   53 1
  57   29   54 1
  58   29   55 1

#	End of record

