#	Name: ASD01148691
#	Creating user name:	WinNT
#	Creation time:	15. 06. 2019 19:03

#	Modifying user name:	WinNT
#	Modification time:	15. 06. 2019 19:03

#	Program:	/corina/corina34_cracker 3.40 0067  02.08.2006

@<TRIPOS>MOLECULE
ASD01148691
  43   45    0    0    0
SMALL
NO_CHARGES


@<TRIPOS>ATOM
   1 C1            -0.0166     1.3762     0.0096 C.ar    
   2 C2             0.0021    -0.0041     0.0020 C.ar    
   3 C3             1.1765     2.0945     0.0021 C.ar    
   4 C4             2.3883     1.4411    -0.0134 C.ar    
   5 C5             2.4286     0.0507    -0.0213 C.ar    
   6 C6             1.2257    -0.6775    -0.0133 C.ar    
   7 N7             3.4583    -0.8665    -0.0368 N.pl3   
   8 C8             2.9493    -2.1363    -0.0388 C.2     
   9 C9             1.6076    -2.0917    -0.0251 C.2     
  10 C10            0.6717    -3.2728    -0.0223 C.3     
  11 C11            0.2415    -3.5859    -1.4568 C.3     
  12 N12           -0.6684    -4.7341    -1.4540 N.am    
  13 C13           -1.1788    -5.1923    -2.6143 C.2     
  14 C14           -2.0982    -6.3526    -2.6115 C.2     
  15 O15           -0.8842    -4.6529    -3.6626 O.2     
  16 O16           -2.4180    -6.9421    -1.4481 O.3     
  17 C17           -3.2439    -7.9935    -1.3882 C.2     
  18 C18           -3.7971    -8.5116    -2.5114 C.2     
  19 C19           -3.4891    -7.9224    -3.7662 C.2     
  20 C20           -2.6118    -6.8036    -3.7850 C.2     
  21 O21           -3.9684    -8.3614    -4.8001 O.2     
  22 O22           -1.2050     2.0373     0.0188 O.3     
  23 C23           -1.1529     3.4653     0.0263 C.3     
  24 O24           -4.6347    -9.5808    -2.4381 O.3     
  25 C25           -4.8926   -10.1149    -1.1380 C.3     
  26 H26           -0.9239    -0.5599     0.0082 H       
  27 H27            1.1509     3.1742     0.0081 H       
  28 H28            3.3075     2.0081    -0.0199 H       
  29 H29            4.4025    -0.6444    -0.0454 H       
  30 H30            3.5394    -3.0407    -0.0499 H       
  31 H31            1.1805    -4.1385     0.4017 H       
  32 H32           -0.2075    -3.0382     0.5777 H       
  33 H33           -0.2673    -2.7202    -1.8807 H       
  34 H34            1.1207    -3.8205    -2.0568 H       
  35 H35           -0.9035    -5.1647    -0.6172 H       
  36 H36           -3.4726    -8.4360    -0.4300 H       
  37 H37           -2.3515    -6.3257    -4.7179 H       
  38 H38           -0.6220     3.8048     0.9157 H       
  39 H39           -0.6304     3.8145    -0.8642 H       
  40 H40           -2.1667     3.8658     0.0333 H       
  41 H41           -3.9562   -10.4452    -0.6885 H       
  42 H42           -5.3445    -9.3453    -0.5121 H       
  43 H43           -5.5740   -10.9616    -1.2216 H       
@<TRIPOS>BOND
   1    1    2 ar
   2    1    3 ar
   3    1   22 1
   4    2    6 ar
   5    2   26 1
   6    3    4 ar
   7    3   27 1
   8    4    5 ar
   9    4   28 1
  10    5    6 ar
  11    5    7 1
  12    6    9 1
  13    7    8 1
  14    7   29 1
  15    8    9 2
  16    8   30 1
  17    9   10 1
  18   10   11 1
  19   10   31 1
  20   10   32 1
  21   11   12 1
  22   11   33 1
  23   11   34 1
  24   12   13 am
  25   12   35 1
  26   13   14 1
  27   13   15 2
  28   14   16 1
  29   14   20 2
  30   16   17 1
  31   17   18 2
  32   17   36 1
  33   18   19 1
  34   18   24 1
  35   19   20 1
  36   19   21 2
  37   20   37 1
  38   22   23 1
  39   23   38 1
  40   23   39 1
  41   23   40 1
  42   24   25 1
  43   25   41 1
  44   25   42 1
  45   25   43 1

#	End of record

