#	Name: ASD03490065
#	Creating user name:	WinNT
#	Creation time:	15. 06. 2019 20:42

#	Modifying user name:	WinNT
#	Modification time:	15. 06. 2019 20:42

#	Program:	/corina/corina34_cracker 3.40 0067  02.08.2006

@<TRIPOS>MOLECULE
ASD03490065
  53   53    0    0    0
SMALL
NO_CHARGES


@<TRIPOS>ATOM
   1 O1            -0.0173     1.4248     0.0099 O.3     
   2 C2             0.0021    -0.0041     0.0020 C.3     
   3 C3            -1.4333    -0.5336     0.0129 C.3     
   4 C4            -1.4133    -2.0590     0.1302 C.3     
   5 O5            -2.0889    -0.1578    -1.2000 O.3     
   6 C6            -2.8486    -2.5886     0.1411 C.3     
   7 O7            -0.7577    -2.4349     1.3431 O.3     
   8 O8            -3.5856    -1.9467     1.1837 O.3     
   9 C9            -2.8334    -4.0999     0.3849 C.3     
  10 C10           -4.2752    -4.6126     0.4544 C.3     
  11 C11           -5.0228    -3.8537     1.5550 C.3     
  12 C12           -4.9535    -2.3519     1.2660 C.3     
  13 C13           -5.6360    -1.5945     2.3758 C.2     
  14 O14           -5.6082    -2.0744     0.0265 O.3     
  15 N15           -2.1294    -4.7659    -0.7137 N.am    
  16 C16           -1.5493    -5.9658    -0.5131 C.2     
  17 C17           -0.8250    -6.6510    -1.6433 C.3     
  18 O18           -1.6101    -6.4942     0.5768 O.2     
  19 O19           -4.2718    -6.0097     0.7547 O.3     
  20 O20           -5.0416    -0.7257     2.9688 O.2     
  21 O21           -6.9043    -1.8852     2.7054 O.3     
  22 C22           -7.4981    -1.1154     3.7840 C.3     
  23 C23           -8.9142    -1.5781     4.0110 C.2     
  24 N24           -9.6658    -1.0020     4.9699 N.am    
  25 O25           -9.3774    -2.4690     3.3308 O.2     
  26 C26          -11.0425    -1.4519     5.1906 C.3     
  27 C27           -9.1063     0.0741     5.7916 C.3     
  28 H28            0.8606     1.8301     0.0037 H       
  29 H29            0.5123    -0.3556    -0.8948 H       
  30 H30            0.5293    -0.3651     0.8851 H       
  31 H31           -1.9701    -0.1109     0.8621 H       
  32 H32           -0.8764    -2.4817    -0.7190 H       
  33 H33           -1.6646    -0.4999    -1.9987 H       
  34 H34           -3.3204    -2.3799    -0.8191 H       
  35 H35           -1.1820    -2.0928     2.1418 H       
  36 H36           -2.3257    -4.3120     1.3258 H       
  37 H37           -4.7682    -4.4453    -0.5033 H       
  38 H38           -6.0647    -4.1732     1.5745 H       
  39 H39           -4.5593    -4.0608     2.5196 H       
  40 H40           -5.6028    -1.1395    -0.2205 H       
  41 H41           -2.0807    -4.3434    -1.5855 H       
  42 H42           -0.0076    -6.0176    -1.9879 H       
  43 H43           -0.4248    -7.6028    -1.2942 H       
  44 H44           -1.5189    -6.8280    -2.4651 H       
  45 H45           -5.1539    -6.4014     0.8139 H       
  46 H46           -6.9181    -1.2598     4.6955 H       
  47 H47           -7.4995    -0.0584     3.5179 H       
  48 H48          -11.0482    -2.2571     5.9252 H       
  49 H49          -11.6420    -0.6196     5.5592 H       
  50 H50          -11.4614    -1.8137     4.2516 H       
  51 H51           -8.0790     0.2695     5.4838 H       
  52 H52           -9.7024     0.9774     5.6623 H       
  53 H53           -9.1210    -0.2241     6.8399 H       
@<TRIPOS>BOND
   1    1    2 1
   2    1   28 1
   3    2    3 1
   4    2   29 1
   5    2   30 1
   6    3    4 1
   7    3    5 1
   8    3   31 1
   9    4    7 1
  10    4    6 1
  11    4   32 1
  12    5   33 1
  13    6    8 1
  14    6    9 1
  15    6   34 1
  16    7   35 1
  17    8   12 1
  18    9   10 1
  19    9   15 1
  20    9   36 1
  21   10   11 1
  22   10   19 1
  23   10   37 1
  24   11   12 1
  25   11   38 1
  26   11   39 1
  27   12   13 1
  28   12   14 1
  29   13   20 2
  30   13   21 1
  31   14   40 1
  32   15   16 am
  33   15   41 1
  34   16   17 1
  35   16   18 2
  36   17   42 1
  37   17   43 1
  38   17   44 1
  39   19   45 1
  40   21   22 1
  41   22   23 1
  42   22   46 1
  43   22   47 1
  44   23   24 am
  45   23   25 2
  46   24   26 1
  47   24   27 1
  48   26   48 1
  49   26   49 1
  50   26   50 1
  51   27   51 1
  52   27   52 1
  53   27   53 1

#	End of record

