#	Name: ASD01917857
#	Creating user name:	WinNT
#	Creation time:	15. 06. 2019 20:10

#	Modifying user name:	WinNT
#	Modification time:	15. 06. 2019 20:10

#	Program:	/corina/corina34_cracker 3.40 0067  02.08.2006

@<TRIPOS>MOLECULE
ASD01917857
  40   43    0    0    0
SMALL
NO_CHARGES


@<TRIPOS>ATOM
   1 C1             0.0813     0.9497    -0.8003 C.2     
   2 C2            -0.0560    -0.3889    -0.7625 C.2     
   3 C3            -1.3723    -1.0772    -0.4355 C.3     
   4 C4            -2.2938    -0.0843     0.2769 C.3     
   5 N5            -2.2883     1.1899    -0.4575 N.am    
   6 C6            -1.0230     1.9424    -0.5180 C.3     
   7 C7            -3.4039     1.6536    -1.0549 C.2     
   8 O8            -4.4050     0.9625    -1.0950 O.2     
   9 S9             1.7445     1.3336    -1.2210 S.3     
  10 C10            2.1152    -0.3327    -1.3059 C.2     
  11 N11            1.0693    -1.0332    -1.0402 N.2     
  12 C12            3.4703    -0.8992    -1.6434 C.3     
  13 O13            3.5706    -1.0842    -3.0568 O.3     
  14 C14            4.7388    -1.5914    -3.5313 C.ar    
  15 C15            4.9047    -1.7968    -4.8932 C.ar    
  16 C16            6.0931    -2.3125    -5.3730 C.ar    
  17 C17            7.1166    -2.6240    -4.4971 C.ar    
  18 C18            6.9535    -2.4206    -3.1392 C.ar    
  19 C19            5.7693    -1.8993    -2.6550 C.ar    
  20 C20           -3.4116     2.9893    -1.6559 C.2     
  21 C21           -4.3040     3.4324    -2.5917 C.2     
  22 C22           -4.0807     4.7300    -2.9846 C.2     
  23 C23           -3.0405     5.3319    -2.3917 C.2     
  24 S24           -2.2790     4.2816    -1.2835 S.3     
  25 Cl25          -2.5394     6.9644    -2.7039 Cl      
  26 H26           -1.8451    -1.4162    -1.3573 H       
  27 H27           -1.1850    -1.9316     0.2148 H       
  28 H28           -3.3075    -0.4840     0.3056 H       
  29 H29           -1.9365     0.0795     1.2936 H       
  30 H30           -0.8418     2.4393     0.4351 H       
  31 H31           -1.0691     2.6807    -1.3185 H       
  32 H32            4.2456    -0.2088    -1.3114 H       
  33 H33            3.5985    -1.8582    -1.1415 H       
  34 H34            4.1054    -1.5540    -5.5778 H       
  35 H35            6.2227    -2.4730    -6.4332 H       
  36 H36            8.0449    -3.0271    -4.8742 H       
  37 H37            7.7542    -2.6653    -2.4570 H       
  38 H38            5.6424    -1.7406    -1.5943 H       
  39 H39           -5.1051     2.8231    -2.9834 H       
  40 H40           -4.6979     5.2281    -3.7177 H       
@<TRIPOS>BOND
   1    1    2 2
   2    1    9 1
   3    1    6 1
   4    2    3 1
   5    2   11 1
   6    3    4 1
   7    3   26 1
   8    3   27 1
   9    4    5 1
  10    4   28 1
  11    4   29 1
  12    5    6 1
  13    5    7 am
  14    6   30 1
  15    6   31 1
  16    7    8 2
  17    7   20 1
  18    9   10 1
  19   10   11 2
  20   10   12 1
  21   12   13 1
  22   12   32 1
  23   12   33 1
  24   13   14 1
  25   14   15 ar
  26   14   19 ar
  27   15   16 ar
  28   15   34 1
  29   16   17 ar
  30   16   35 1
  31   17   18 ar
  32   17   36 1
  33   18   19 ar
  34   18   37 1
  35   19   38 1
  36   20   21 2
  37   20   24 1
  38   21   22 1
  39   21   39 1
  40   22   23 2
  41   22   40 1
  42   23   25 1
  43   23   24 1

#	End of record

