#	Name: ASD03091133
#	Creating user name:	WinNT
#	Creation time:	15. 06. 2019 20:30

#	Modifying user name:	WinNT
#	Modification time:	15. 06. 2019 20:30

#	Program:	/corina/corina34_cracker 3.40 0067  02.08.2006

@<TRIPOS>MOLECULE
ASD03091133
  43   45    0    0    0
SMALL
NO_CHARGES


@<TRIPOS>ATOM
   1 C1             1.1713    -0.3494    -1.2204 C.ar    
   2 C2             0.2488     0.0307    -0.2625 C.ar    
   3 C3             0.5788     0.9894     0.6776 C.ar    
   4 C4             1.8318     1.5706     0.6632 C.ar    
   5 C5             2.7606     1.1909    -0.2971 C.ar    
   6 C6             2.4256     0.2276    -1.2405 C.ar    
   7 S7             0.7478    -1.5765    -2.4118 S.o2    
   8 O8             1.8550    -1.6752    -3.2971 O.2     
   9 O9             0.2343    -2.6830    -1.6831 O.2     
  10 N10           -0.5126    -0.9788    -3.3043 N.am    
  11 N11           -1.0947    -0.5898    -0.2440 N.pl3   
  12 O12           -1.8647    -0.3480     0.6683 O.2     
  13 O13           -1.4304    -1.3423    -1.1410 O.2     
  14 C14           -0.3189     0.2062    -4.1435 C.3     
  15 N15            6.5915     2.7541     0.8013 N.3     
  16 C16            5.4269     3.6245     0.5785 C.3     
  17 C17            4.1339     2.8332     0.6988 C.3     
  18 N18            4.0284     1.7768    -0.3148 N.3     
  19 C19            5.0782     0.7667    -0.1214 C.3     
  20 C20            6.2860     1.0832    -0.9907 C.3     
  21 C21            7.1005     2.2566    -0.4848 C.3     
  22 C22            6.4287     1.7062     1.7861 C.3     
  23 C23            5.4063     0.6666     1.3571 C.3     
  24 H24           -0.1441     1.2845     1.4237 H       
  25 H25            2.0888     2.3196     1.3975 H       
  26 H26            3.1454    -0.0697    -1.9888 H       
  27 H27           -1.3792    -1.4134    -3.2713 H       
  28 H28            0.3905    -0.0236    -4.9385 H       
  29 H29           -1.2725     0.5010    -4.5816 H       
  30 H30            0.0694     1.0229    -3.5350 H       
  31 H31            5.4290     4.4238     1.3196 H       
  32 H32            5.4898     4.0602    -0.4187 H       
  33 H33            4.0890     2.3786     1.6884 H       
  34 H34            3.2909     3.5152     0.5870 H       
  35 H35            4.6794    -0.1982    -0.4344 H       
  36 H36            6.9281     0.2033    -1.0305 H       
  37 H37            5.9410     1.3066    -2.0003 H       
  38 H38            7.0594     3.0612    -1.2190 H       
  39 H39            8.1369     1.9430    -0.3601 H       
  40 H40            7.3891     1.2146     1.9412 H       
  41 H41            6.1058     2.1523     2.7268 H       
  42 H42            4.4923     0.8098     1.9333 H       
  43 H43            5.8027    -0.3271     1.5655 H       
@<TRIPOS>BOND
   1    1    2 ar
   2    1    6 ar
   3    1    7 1
   4    2    3 ar
   5    2   11 1
   6    3    4 ar
   7    3   24 1
   8    4    5 ar
   9    4   25 1
  10    5    6 ar
  11    5   18 1
  12    6   26 1
  13    7    8 2
  14    7    9 2
  15    7   10 am
  16   10   14 1
  17   10   27 1
  18   11   12 2
  19   11   13 2
  20   14   28 1
  21   14   29 1
  22   14   30 1
  23   15   16 1
  24   15   21 1
  25   15   22 1
  26   16   17 1
  27   16   31 1
  28   16   32 1
  29   17   18 1
  30   17   33 1
  31   17   34 1
  32   18   19 1
  33   19   20 1
  34   19   23 1
  35   19   35 1
  36   20   21 1
  37   20   36 1
  38   20   37 1
  39   21   38 1
  40   21   39 1
  41   22   23 1
  42   22   40 1
  43   22   41 1
  44   23   42 1
  45   23   43 1

#	End of record

