#	Name: ASD06140029
#	Creating user name:	WinNT
#	Creation time:	15. 06. 2019 21:05

#	Modifying user name:	WinNT
#	Modification time:	15. 06. 2019 21:05

#	Program:	/corina/corina34_cracker 3.40 0067  02.08.2006

@<TRIPOS>MOLECULE
ASD06140029
  27   28    0    0    0
SMALL
NO_CHARGES


@<TRIPOS>ATOM
   1 C1            -0.0187     1.5261     0.0104 C.3     
   2 C2             0.0021    -0.0041     0.0020 C.3     
   3 C3             0.9368    -0.5007     1.1091 C.3     
   4 C4             2.3835    -0.1835     0.7210 C.3     
   5 C5             2.4704     1.2750     0.3143 C.2     
   6 C6             1.4140     2.0349    -0.0005 C.2     
   7 S7             3.9596     2.1971     0.1907 S.3     
   8 C8             3.1401     3.6104    -0.2882 C.2     
   9 C9             1.7935     3.3907    -0.3512 C.2     
  10 N10            3.7561     4.8207    -0.5749 N.am    
  11 C11            5.0960     4.9335    -0.4821 C.2     
  12 O12            5.7634     3.9775    -0.1481 O.2     
  13 C13            5.7648     6.2475    -0.7935 C.3     
  14 F14            7.1479     6.1176    -0.6276 F       
  15 F15            5.4858     6.6112    -2.1152 F       
  16 F16            5.2818     7.2336     0.0734 F       
  17 C17            0.8489     4.3994    -0.7266 C.1     
  18 N18            0.0996     5.1996    -1.0244 N.1     
  19 H19           -0.5422     1.8894    -0.8739 H       
  20 H20           -0.5252     1.8798     0.9085 H       
  21 H21           -1.0047    -0.3829     0.1782 H       
  22 H22            0.3615    -0.3581    -0.9642 H       
  23 H23            0.6920     0.0011     2.0453 H       
  24 H24            0.8193    -1.5776     1.2296 H       
  25 H25            3.0387    -0.3650     1.5730 H       
  26 H26            2.6844    -0.8146    -0.1152 H       
  27 H27            3.2224     5.5853    -0.8421 H       
@<TRIPOS>BOND
   1    1    2 1
   2    1    6 1
   3    1   19 1
   4    1   20 1
   5    2    3 1
   6    2   21 1
   7    2   22 1
   8    3    4 1
   9    3   23 1
  10    3   24 1
  11    4    5 1
  12    4   25 1
  13    4   26 1
  14    5    6 2
  15    5    7 1
  16    6    9 1
  17    7    8 1
  18    8    9 2
  19    8   10 1
  20    9   17 1
  21   10   11 am
  22   10   27 1
  23   11   12 2
  24   11   13 1
  25   13   14 1
  26   13   15 1
  27   13   16 1
  28   17   18 3

#	End of record

