#	Name: ASD02198625
#	Creating user name:	WinNT
#	Creation time:	15. 06. 2019 20:19

#	Modifying user name:	WinNT
#	Modification time:	15. 06. 2019 20:19

#	Program:	/corina/corina34_cracker 3.40 0067  02.08.2006

@<TRIPOS>MOLECULE
ASD02198625
  49   53    0    0    0
SMALL
NO_CHARGES


@<TRIPOS>ATOM
   1 C1            -0.2578     0.8970    -1.0869 C.2     
   2 C2            -0.2977    -0.4355    -0.8127 C.2     
   3 N3            -1.4322    -1.0139    -0.3552 N.pl3   
   4 N4            -2.5201    -0.3671    -0.1533 N.2     
   5 C5            -2.6189     0.9268    -0.3779 C.2     
   6 C6            -1.4400     1.6521    -0.8708 C.2     
   7 C7            -1.4170    -2.3872    -0.0897 C.ar    
   8 C8            -2.3534    -3.2233    -0.6913 C.ar    
   9 C9            -2.3367    -4.5796    -0.4283 C.ar    
  10 C10           -1.3859    -5.1074     0.4357 C.ar    
  11 C11           -0.4523    -4.2726     1.0359 C.ar    
  12 C12           -0.4639    -2.9183     0.7699 C.ar    
  13 C13           -3.8906     1.6373    -0.1328 C.2     
  14 N14           -4.9444     1.1831     0.6088 N.pl3   
  15 N15           -5.9409     2.1668     0.5814 N.2     
  16 C16           -5.5186     3.1737    -0.1412 C.2     
  17 C17           -4.2349     2.8853    -0.6042 C.2     
  18 C18           -5.0156    -0.0468     1.2767 C.ar    
  19 C19           -3.9905    -0.4369     2.1270 C.ar    
  20 C20           -4.0635    -1.6499     2.7846 C.ar    
  21 C21           -5.1560    -2.4761     2.5968 C.ar    
  22 C22           -6.1803    -2.0920     1.7506 C.ar    
  23 C23           -6.1166    -0.8769     1.0936 C.ar    
  24 O24           -1.4786     2.8534    -1.0948 O.2     
  25 O25            0.8783     1.4862    -1.5471 O.3     
  26 C26            2.0187     0.6441    -1.7270 C.3     
  27 F27           -3.2781    -2.7089    -1.5313 F       
  28 N28           -1.3690    -6.4833     0.7025 N.pl3   
  29 C29           -0.5031    -7.1251     1.5191 C.2     
  30 C30           -0.8211    -8.4403     1.5045 C.2     
  31 C31           -1.9171    -8.6091     0.6513 C.2     
  32 N32           -2.2500    -7.4363     0.1750 N.2     
  33 F33           -7.1172    -0.5012     0.2672 F       
  34 H34            0.5860    -1.0380    -0.9624 H       
  35 H35           -3.0629    -5.2291    -0.8942 H       
  36 H36            0.2861    -4.6841     1.7082 H       
  37 H37            0.2629    -2.2701     1.2369 H       
  38 H38           -6.0713     4.0796    -0.3421 H       
  39 H39           -3.6233     3.5229    -1.2252 H       
  40 H40           -3.1360     0.2070     2.2742 H       
  41 H41           -3.2657    -1.9533     3.4462 H       
  42 H42           -5.2096    -3.4238     3.1119 H       
  43 H43           -7.0322    -2.7398     1.6058 H       
  44 H44            1.7822    -0.1387    -2.4477 H       
  45 H45            2.8543     1.2383    -2.0971 H       
  46 H46            2.2895     0.1905    -0.7736 H       
  47 H47            0.2986    -6.6698     2.0816 H       
  48 H48           -0.3174    -9.2219     2.0539 H       
  49 H49           -2.4073    -9.5452     0.4281 H       
@<TRIPOS>BOND
   1    1    2 2
   2    1   25 1
   3    1    6 1
   4    2    3 1
   5    2   34 1
   6    3    4 1
   7    3    7 1
   8    4    5 2
   9    5    6 1
  10    5   13 1
  11    6   24 2
  12    7    8 ar
  13    7   12 ar
  14    8    9 ar
  15    8   27 1
  16    9   10 ar
  17    9   35 1
  18   10   11 ar
  19   10   28 1
  20   11   12 ar
  21   11   36 1
  22   12   37 1
  23   13   14 1
  24   13   17 2
  25   14   15 1
  26   14   18 1
  27   15   16 2
  28   16   17 1
  29   16   38 1
  30   17   39 1
  31   18   19 ar
  32   18   23 ar
  33   19   20 ar
  34   19   40 1
  35   20   21 ar
  36   20   41 1
  37   21   22 ar
  38   21   42 1
  39   22   23 ar
  40   22   43 1
  41   23   33 1
  42   25   26 1
  43   26   44 1
  44   26   45 1
  45   26   46 1
  46   28   29 1
  47   28   32 1
  48   29   30 2
  49   29   47 1
  50   30   31 1
  51   30   48 1
  52   31   32 2
  53   31   49 1

#	End of record

