#	Name: ASD00740001
#	Creating user name:	WinNT
#	Creation time:	15. 06. 2019 18:37

#	Modifying user name:	WinNT
#	Modification time:	15. 06. 2019 18:37

#	Program:	/corina/corina34_cracker 3.40 0067  02.08.2006

@<TRIPOS>MOLECULE
ASD00740001
  49   51    0    0    0
SMALL
NO_CHARGES


@<TRIPOS>ATOM
   1 N1            -0.0162     1.3436     0.0094 N.am    
   2 C2            -0.1422     0.0018     0.0226 C.2     
   3 N3            -1.3617    -0.5595     0.1415 N.am    
   4 C4            -1.4921    -1.9479     0.1551 C.2     
   5 N5            -2.6545    -2.6465     0.2685 N.pl3   
   6 N6            -2.3383    -4.0108     0.2379 N.2     
   7 C7            -1.0414    -4.1318     0.1115 C.2     
   8 C8            -0.4806    -2.8528     0.0515 C.2     
   9 C9            -0.2811    -5.4310     0.0383 C.3     
  10 C10            0.4312    -5.6807     1.3691 C.3     
  11 C11           -1.2555    -6.5770    -0.2415 C.3     
  12 C12            0.7527    -5.3543    -1.0870 C.3     
  13 O13            0.8445    -0.7025    -0.0728 O.2     
  14 C14           -3.9385    -2.0988     0.3940 C.ar    
  15 C15            1.2562     1.9270    -0.0002 C.ar    
  16 C16            1.4745     3.1082    -0.6969 C.ar    
  17 C17            2.7308     3.6818    -0.7048 C.ar    
  18 C18            3.7716     3.0805    -0.0192 C.ar    
  19 C19            3.5569     1.9031     0.6755 C.ar    
  20 C20            2.3010     1.3287     0.6917 C.ar    
  21 Cl21           5.3496     3.8041    -0.0312 Cl      
  22 C22           -4.1251    -0.9207     1.1053 C.ar    
  23 C23           -5.3907    -0.3800     1.2301 C.ar    
  24 C24           -6.4741    -1.0090     0.6482 C.ar    
  25 C25           -6.2941    -2.1882    -0.0650 C.ar    
  26 C26           -5.0233    -2.7300    -0.1971 C.ar    
  27 N27           -7.3900    -2.8243    -0.6525 N.pl3   
  28 H28           -0.8072     1.9049     0.0026 H       
  29 H29           -2.1488     0.0023     0.2175 H       
  30 H30            0.5696    -2.6233    -0.0525 H       
  31 H31           -0.3053    -5.7353     2.1708 H       
  32 H32            0.9810    -6.6204     1.3162 H       
  33 H33            1.1253    -4.8643     1.5685 H       
  34 H34           -1.7630    -6.3991    -1.1896 H       
  35 H35           -0.7056    -7.5166    -0.2944 H       
  36 H36           -1.9920    -6.6316     0.5601 H       
  37 H37            1.4468    -4.5379    -0.8876 H       
  38 H38            1.3025    -6.2939    -1.1399 H       
  39 H39            0.2452    -5.1764    -2.0351 H       
  40 H40            0.6626     3.5777    -1.2325 H       
  41 H41            2.9012     4.6003    -1.2469 H       
  42 H42            4.3710     1.4354     1.2092 H       
  43 H43            2.1338     0.4100     1.2343 H       
  44 H44           -3.2801    -0.4267     1.5618 H       
  45 H45           -5.5330     0.5360     1.7842 H       
  46 H46           -7.4620    -0.5841     0.7478 H       
  47 H47           -4.8805    -3.6460    -0.7511 H       
  48 H48           -8.2774    -2.4431    -0.5628 H       
  49 H49           -7.2637    -3.6473    -1.1501 H       
@<TRIPOS>BOND
   1    1    2 am
   2    1   15 1
   3    1   28 1
   4    2    3 am
   5    2   13 2
   6    3    4 1
   7    3   29 1
   8    4    5 1
   9    4    8 2
  10    5    6 1
  11    5   14 1
  12    6    7 2
  13    7    8 1
  14    7    9 1
  15    8   30 1
  16    9   10 1
  17    9   11 1
  18    9   12 1
  19   10   31 1
  20   10   32 1
  21   10   33 1
  22   11   34 1
  23   11   35 1
  24   11   36 1
  25   12   37 1
  26   12   38 1
  27   12   39 1
  28   14   22 ar
  29   14   26 ar
  30   15   16 ar
  31   15   20 ar
  32   16   17 ar
  33   16   40 1
  34   17   18 ar
  35   17   41 1
  36   18   19 ar
  37   18   21 1
  38   19   20 ar
  39   19   42 1
  40   20   43 1
  41   22   23 ar
  42   22   44 1
  43   23   24 ar
  44   23   45 1
  45   24   25 ar
  46   24   46 1
  47   25   26 ar
  48   25   27 1
  49   26   47 1
  50   27   48 1
  51   27   49 1

#	End of record

