#	Name: ASD01000113
#	Creating user name:	WinNT
#	Creation time:	15. 06. 2019 18:54

#	Modifying user name:	WinNT
#	Modification time:	15. 06. 2019 18:54

#	Program:	/corina/corina34_cracker 3.40 0067  02.08.2006

@<TRIPOS>MOLECULE
ASD01000113
  34   36    0    0    0
SMALL
NO_CHARGES


@<TRIPOS>ATOM
   1 C1            -0.0167     1.3790     0.0096 C.ar    
   2 C2             0.0021    -0.0041     0.0020 C.ar    
   3 C3            -1.1855    -0.7112     0.0100 C.ar    
   4 C4            -2.3919    -0.0363     0.0257 C.ar    
   5 C5            -2.4112     1.3459     0.0333 C.ar    
   6 C6            -1.2240     2.0538     0.0306 C.ar    
   7 C7            -4.1105    -1.0770     1.4791 C.3     
   8 C8            -3.6865    -0.8078     0.0339 C.3     
   9 Br9            1.6078     2.3470    -0.0007 Br      
  10 C10           -5.4051    -1.8485     1.4873 C.ar    
  11 C11           -5.3739    -3.2414     1.4791 C.ar    
  12 C12           -6.5249    -3.9683     1.4857 C.ar    
  13 C13           -7.7645    -3.3071     1.5015 C.ar    
  14 C14           -7.7962    -1.8900     1.5104 C.ar    
  15 C15           -6.5873    -1.1740     1.5083 C.ar    
  16 C16           -8.9738    -4.0233     1.5082 C.ar    
  17 C17          -10.1557    -3.3489     1.5232 C.ar    
  18 C18          -10.1868    -1.9554     1.5320 C.ar    
  19 C19           -9.0362    -1.2287     1.5259 C.ar    
  20 H20            0.9445    -0.5314    -0.0105 H       
  21 H21           -1.1710    -1.7911     0.0037 H       
  22 H22           -3.3539     1.8727     0.0455 H       
  23 H23           -1.2391     3.1337     0.0365 H       
  24 H24           -3.3379    -1.6585     1.9821 H       
  25 H25           -4.2489    -0.1295     1.9997 H       
  26 H26           -4.4591    -0.2263    -0.4691 H       
  27 H27           -3.5481    -1.7553    -0.4867 H       
  28 H28           -4.4224    -3.7521     1.4669 H       
  29 H29           -6.4854    -5.0475     1.4785 H       
  30 H30           -6.5961    -0.0940     1.5150 H       
  31 H31           -8.9651    -5.1033     1.5012 H       
  32 H32          -11.0835    -3.9016     1.5280 H       
  33 H33          -11.1384    -1.4448     1.5439 H       
  34 H34           -9.0758    -0.1495     1.5333 H       
@<TRIPOS>BOND
   1    1    2 ar
   2    1    9 1
   3    1    6 ar
   4    2    3 ar
   5    2   20 1
   6    3    4 ar
   7    3   21 1
   8    4    5 ar
   9    4    8 1
  10    5    6 ar
  11    5   22 1
  12    6   23 1
  13    7    8 1
  14    7   10 1
  15    7   24 1
  16    7   25 1
  17    8   26 1
  18    8   27 1
  19   10   11 ar
  20   10   15 ar
  21   11   12 ar
  22   11   28 1
  23   12   13 ar
  24   12   29 1
  25   13   14 ar
  26   13   16 ar
  27   14   15 ar
  28   14   19 ar
  29   15   30 1
  30   16   17 ar
  31   16   31 1
  32   17   18 ar
  33   17   32 1
  34   18   19 ar
  35   18   33 1
  36   19   34 1

#	End of record

