#	Name: ASD08390050
#	Creating user name:	WinNT
#	Creation time:	15. 06. 2019 21:19

#	Modifying user name:	WinNT
#	Modification time:	15. 06. 2019 21:19

#	Program:	/corina/corina34_cracker 3.40 0067  02.08.2006

@<TRIPOS>MOLECULE
ASD08390050
  56   60    0    0    0
SMALL
NO_CHARGES


@<TRIPOS>ATOM
   1 C1            -0.2090     1.5219    -0.1708 C.3     
   2 C2            -0.0167     0.0678     0.3038 C.3     
   3 N3             1.1621     1.9607    -0.4801 N.pl3   
   4 C4             2.0161     0.9194    -0.2234 C.2     
   5 N5             1.4334    -0.1494     0.2096 N.2     
   6 C6             3.4803     1.0117    -0.4245 C.ar    
   7 C7            -1.0732     1.5686    -1.4045 C.ar    
   8 C8            -0.4827    -0.0886     1.7284 C.ar    
   9 C9             1.5477     3.2835    -0.9778 C.3     
  10 C10            1.7001     4.2322     0.1832 C.ar    
  11 C11           -2.4190     1.8900    -1.3166 C.ar    
  12 C12           -3.1802     1.9234    -2.4696 C.ar    
  13 N13           -2.6405     1.6538    -3.6422 N.ar    
  14 C14           -1.3643     1.3443    -3.7635 C.ar    
  15 C15           -0.5400     1.2968    -2.6552 C.ar    
  16 C16            2.9462     4.4457     0.7424 C.ar    
  17 C17            0.5948     4.8933     0.6852 C.ar    
  18 C18            0.7345     5.7635     1.7501 C.ar    
  19 C19            1.9796     5.9724     2.3133 C.ar    
  20 C20            3.0859     5.3159     1.8073 C.ar    
  21 C21            4.3523     0.4711     0.5201 C.ar    
  22 C22            5.7157     0.5603     0.3270 C.ar    
  23 C23            6.2180     1.1850    -0.8005 C.ar    
  24 C24            5.3581     1.7236    -1.7408 C.ar    
  25 C25            3.9927     1.6347    -1.5622 C.ar    
  26 C26            0.1110    -1.0280     2.5506 C.ar    
  27 C27           -0.3165    -1.1716     3.8573 C.ar    
  28 C28           -1.3373    -0.3755     4.3420 C.ar    
  29 C29           -1.9304     0.5645     3.5201 C.ar    
  30 C30           -1.5000     0.7111     2.2147 C.ar    
  31 C31           -0.7562    -0.8848    -0.5999 C.2     
  32 O32           -1.8934    -1.2017    -0.3428 O.2     
  33 O33           -0.1514    -1.3814    -1.6905 O.3     
  34 H34           -0.6381     2.1323     0.6238 H       
  35 H35            2.4946     3.2087    -1.5125 H       
  36 H36            0.7776     3.6564    -1.6530 H       
  37 H37           -2.8670     2.1111    -0.3590 H       
  38 H38           -4.2293     2.1728    -2.4096 H       
  39 H39           -0.9578     1.1292    -4.7407 H       
  40 H40            0.5044     1.0431    -2.7610 H       
  41 H41            3.8104     3.9324     0.3475 H       
  42 H42           -0.3780     4.7301     0.2453 H       
  43 H43           -0.1290     6.2805     2.1419 H       
  44 H44            2.0888     6.6525     3.1450 H       
  45 H45            4.0587     5.4791     2.2473 H       
  46 H46            3.9612    -0.0161     1.4010 H       
  47 H47            6.3919     0.1420     1.0578 H       
  48 H48            7.2859     1.2527    -0.9470 H       
  49 H49            5.7562     2.2103    -2.6188 H       
  50 H50            3.3224     2.0553    -2.2971 H       
  51 H51            0.9086    -1.6500     2.1719 H       
  52 H52            0.1469    -1.9060     4.4995 H       
  53 H53           -1.6718    -0.4881     5.3627 H       
  54 H54           -2.7282     1.1863     3.8987 H       
  55 H55           -1.9634     1.4455     1.5725 H       
  56 H56           -0.6659    -1.9887    -2.2396 H       
@<TRIPOS>BOND
   1    1    2 1
   2    1    3 1
   3    1    7 1
   4    1   34 1
   5    2    8 1
   6    2   31 1
   7    2    5 1
   8    3    4 1
   9    3    9 1
  10    4    5 2
  11    4    6 1
  12    6   21 ar
  13    6   25 ar
  14    7   11 ar
  15    7   15 ar
  16    8   26 ar
  17    8   30 ar
  18    9   10 1
  19    9   35 1
  20    9   36 1
  21   10   16 ar
  22   10   17 ar
  23   11   12 ar
  24   11   37 1
  25   12   13 ar
  26   12   38 1
  27   13   14 ar
  28   14   15 ar
  29   14   39 1
  30   15   40 1
  31   16   20 ar
  32   16   41 1
  33   17   18 ar
  34   17   42 1
  35   18   19 ar
  36   18   43 1
  37   19   20 ar
  38   19   44 1
  39   20   45 1
  40   21   22 ar
  41   21   46 1
  42   22   23 ar
  43   22   47 1
  44   23   24 ar
  45   23   48 1
  46   24   25 ar
  47   24   49 1
  48   25   50 1
  49   26   27 ar
  50   26   51 1
  51   27   28 ar
  52   27   52 1
  53   28   29 ar
  54   28   53 1
  55   29   30 ar
  56   29   54 1
  57   30   55 1
  58   31   32 2
  59   31   33 1
  60   33   56 1

#	End of record

