#	Name: ASD09740314
#	Creating user name:	WinNT
#	Creation time:	15. 06. 2019 21:23

#	Modifying user name:	WinNT
#	Modification time:	15. 06. 2019 21:23

#	Program:	/corina/corina34_cracker 3.40 0067  02.08.2006

@<TRIPOS>MOLECULE
ASD09740314
  44   46    0    0    0
SMALL
NO_CHARGES


@<TRIPOS>ATOM
   1 O1            -0.0144     1.2085     0.0087 O.3     
   2 N2             0.0021    -0.0041     0.0020 N.2     
   3 C3             1.2413     1.6829    -0.0008 C.2     
   4 N4             2.0460     0.6360    -0.0141 N.2     
   5 C5             1.2349    -0.4424    -0.0121 C.2     
   6 C6             1.6624    -1.8637    -0.0234 C.ar    
   7 C7             1.6454     3.1034     0.0026 C.ar    
   8 C8             2.9989     3.4457    -0.0090 C.ar    
   9 C9             3.3747     4.7724    -0.0053 C.ar    
  10 C10            2.4103     5.7697     0.0098 C.ar    
  11 C11            1.0572     5.4348     0.0209 C.ar    
  12 C12            0.6741     4.1075     0.0115 C.ar    
  13 C13            3.0176    -2.1858    -0.0376 C.ar    
  14 C14            3.4101    -3.5090    -0.0476 C.ar    
  15 C15            2.4597    -4.5150    -0.0439 C.ar    
  16 C16            1.1117    -4.2001    -0.0298 C.ar    
  17 C17            0.7094    -2.8804    -0.0140 C.ar    
  18 Br18           3.0043    -6.3259    -0.0589 Br      
  19 O19            2.7855     7.0755     0.0142 O.3     
  20 C20            4.1883     7.3474     0.0027 C.3     
  21 C21            4.4146     8.8606     0.0098 C.3     
  22 O22            0.1143     6.4147     0.0362 O.3     
  23 C23           -1.2530     5.9993     0.0470 C.3     
  24 C24           -2.1602     7.2311     0.0635 C.3     
  25 C25            0.0821    -5.3005    -0.0264 C.3     
  26 H26            3.7516     2.6713    -0.0204 H       
  27 H27            4.4220     5.0358    -0.0139 H       
  28 H28           -0.3739     3.8466     0.0198 H       
  29 H29            3.7600    -1.4014    -0.0412 H       
  30 H30            4.4605    -3.7597    -0.0586 H       
  31 H31           -0.3425    -2.6357    -0.0026 H       
  32 H32            4.6511     6.9067     0.8857 H       
  33 H33            4.6344     6.9176    -0.8941 H       
  34 H34            5.4846     9.0680     0.0010 H       
  35 H35            3.9518     9.3013    -0.8732 H       
  36 H36            3.9685     9.2905     0.9067 H       
  37 H37           -1.4599     5.4075    -0.8447 H       
  38 H38           -1.4426     5.3965     0.9351 H       
  39 H39           -1.9706     7.8339    -0.8247 H       
  40 H40           -3.2031     6.9142     0.0717 H       
  41 H41           -1.9533     7.8229     0.9551 H       
  42 H42           -0.1567    -5.5715     1.0020 H       
  43 H43           -0.8207    -4.9549    -0.5301 H       
  44 H44            0.4789    -6.1710    -0.5487 H       
@<TRIPOS>BOND
   1    1    2 1
   2    1    3 1
   3    2    5 2
   4    3    4 2
   5    3    7 1
   6    4    5 1
   7    5    6 1
   8    6   13 ar
   9    6   17 ar
  10    7    8 ar
  11    7   12 ar
  12    8    9 ar
  13    8   26 1
  14    9   10 ar
  15    9   27 1
  16   10   11 ar
  17   10   19 1
  18   11   12 ar
  19   11   22 1
  20   12   28 1
  21   13   14 ar
  22   13   29 1
  23   14   15 ar
  24   14   30 1
  25   15   16 ar
  26   15   18 1
  27   16   17 ar
  28   16   25 1
  29   17   31 1
  30   19   20 1
  31   20   21 1
  32   20   32 1
  33   20   33 1
  34   21   34 1
  35   21   35 1
  36   21   36 1
  37   22   23 1
  38   23   24 1
  39   23   37 1
  40   23   38 1
  41   24   39 1
  42   24   40 1
  43   24   41 1
  44   25   42 1
  45   25   43 1
  46   25   44 1

#	End of record

