#	Name: ASD01911151
#	Creating user name:	WinNT
#	Creation time:	15. 06. 2019 19:57

#	Modifying user name:	WinNT
#	Modification time:	15. 06. 2019 19:57

#	Program:	/corina/corina34_cracker 3.40 0067  02.08.2006

@<TRIPOS>MOLECULE
ASD01911151
  39   42    0    0    0
SMALL
NO_CHARGES


@<TRIPOS>ATOM
   1 C1            -0.0167     1.3769     0.0096 C.ar    
   2 C2             0.0021    -0.0041     0.0020 C.ar    
   3 C3             1.2148    -0.6805    -0.0132 C.ar    
   4 C4             2.4052     0.0345    -0.0207 C.ar    
   5 C5             2.3798     1.4153    -0.0130 C.ar    
   6 C6             1.1705     2.0860     0.0021 C.ar    
   7 N7             1.2372    -2.0811    -0.0204 N.pl3   
   8 N8             0.3284    -2.9225     0.6337 N.2     
   9 C9             0.6738    -4.1704     0.3949 C.2     
  10 C10            1.8193    -4.1608    -0.4231 C.2     
  11 C11            2.1431    -2.8640    -0.6697 C.2     
  12 C12           -0.0236    -5.3783     0.9012 C.ar    
  13 C13           -1.1529    -5.2476     1.7070 C.ar    
  14 C14           -1.7979    -6.3745     2.1749 C.ar    
  15 C15           -1.3253    -7.6320     1.8452 C.ar    
  16 C16           -0.2045    -7.7676     1.0460 C.ar    
  17 C17            0.4450    -6.6476     0.5679 C.ar    
  18 N18            3.2145    -2.4161    -1.4400 N.am    
  19 C19            4.0445    -3.3047    -2.0214 C.2     
  20 C20            5.1720    -2.8333    -2.8319 C.2     
  21 O21            3.8582    -4.4983    -1.8736 O.2     
  22 S22            5.5909    -1.1517    -3.1510 S.3     
  23 C23            6.9244    -1.6534    -4.0958 C.2     
  24 N24            6.9931    -2.9454    -4.1291 N.2     
  25 C25            6.0831    -3.6138    -3.4659 C.2     
  26 H26           -0.9595     1.9036     0.0169 H       
  27 H27           -0.9254    -0.5573     0.0082 H       
  28 H28            3.3499    -0.4887    -0.0321 H       
  29 H29            3.3053     1.9719    -0.0185 H       
  30 H30            1.1533     3.1658     0.0080 H       
  31 H31            2.3447    -5.0290    -0.7925 H       
  32 H32           -1.5225    -4.2662     1.9653 H       
  33 H33           -2.6730    -6.2743     2.7998 H       
  34 H34           -1.8331    -8.5112     2.2135 H       
  35 H35            0.1607    -8.7519     0.7923 H       
  36 H36            1.3198    -6.7546    -0.0562 H       
  37 H37            3.3630    -1.4648    -1.5577 H       
  38 H38            7.6123    -0.9865    -4.5943 H       
  39 H39            6.0556    -4.6929    -3.4326 H       
@<TRIPOS>BOND
   1    1    2 ar
   2    1    6 ar
   3    1   26 1
   4    2    3 ar
   5    2   27 1
   6    3    4 ar
   7    3    7 1
   8    4    5 ar
   9    4   28 1
  10    5    6 ar
  11    5   29 1
  12    6   30 1
  13    7    8 1
  14    7   11 1
  15    8    9 2
  16    9   10 1
  17    9   12 1
  18   10   11 2
  19   10   31 1
  20   11   18 1
  21   12   13 ar
  22   12   17 ar
  23   13   14 ar
  24   13   32 1
  25   14   15 ar
  26   14   33 1
  27   15   16 ar
  28   15   34 1
  29   16   17 ar
  30   16   35 1
  31   17   36 1
  32   18   19 am
  33   18   37 1
  34   19   20 1
  35   19   21 2
  36   20   22 1
  37   20   25 2
  38   22   23 1
  39   23   24 2
  40   23   38 1
  41   24   25 1
  42   25   39 1

#	End of record

