#	Name: ASD00845198
#	Creating user name:	WinNT
#	Creation time:	15. 06. 2019 18:51

#	Modifying user name:	WinNT
#	Modification time:	15. 06. 2019 18:51

#	Program:	/corina/corina34_cracker 3.40 0067  02.08.2006

@<TRIPOS>MOLECULE
ASD00845198
  85   90    0    0    0
SMALL
NO_CHARGES


@<TRIPOS>ATOM
   1 C1            -0.0167     1.3829     0.0096 C.ar    
   2 C2             0.0021    -0.0041     0.0020 C.ar    
   3 C3             1.2143    -0.6791    -0.0132 C.ar    
   4 C4             2.3989     0.0312    -0.0207 C.ar    
   5 C5             2.3774     1.4139    -0.0126 C.ar    
   6 C6             1.1710     2.0888     0.0021 C.ar    
   7 C7             1.2384    -2.1858    -0.0210 C.3     
   8 C8             0.4954    -2.7222    -1.2260 C.2     
   9 O9             2.6066    -2.6718    -0.0089 O.3     
  10 C10            3.3986    -2.2936    -1.0299 C.2     
  11 N11            4.6795    -2.7098    -1.0791 N.am    
  12 O12            2.9584    -1.5772    -1.9071 O.2     
  13 C13            5.5560    -2.3055    -2.1868 C.3     
  14 C14            6.1676    -3.5616    -2.8152 C.3     
  15 C15            6.8659    -4.3825    -1.7286 C.3     
  16 C16            5.8415    -4.8177    -0.6783 C.3     
  17 C17            5.2278    -3.5713    -0.0227 C.3     
  18 C18            7.5077    -5.6204    -2.3584 C.3     
  19 C19            8.5342    -5.1866    -3.4084 C.3     
  20 C20            9.2160    -6.4266    -3.9911 C.3     
  21 N21            9.8770    -7.1748    -2.9142 N.3     
  22 C22            8.9046    -7.6425    -1.9181 C.3     
  23 C23            8.2135    -6.4387    -1.2736 C.3     
  24 H24           10.4133    -7.9447    -3.2852 H       
  25 O25            0.7747    -2.5266    -2.3899 O.2     
  26 N26           -0.5308    -3.4561    -0.7646 N.am    
  27 C27            0.4677    -2.7343     1.1584 C.ar    
  28 C28           -0.5778    -3.4853     0.6264 C.ar    
  29 C29            0.6314    -2.6120     2.5149 C.ar    
  30 C30           -0.2617    -3.2488     3.3840 C.ar    
  31 C31           -1.3150    -4.0053     2.8564 C.ar    
  32 C32           -1.4681    -4.1216     1.4914 C.ar    
  33 F33           -2.1826    -4.6239     3.6870 F       
  34 C34           -0.9796    -5.8517    -2.0429 C.ar    
  35 C35           -1.3052    -6.8928    -1.1934 C.ar    
  36 C36           -0.1592    -6.0764    -3.1329 C.ar    
  37 C37            0.3374    -7.3424    -3.3757 C.ar    
  38 C38            0.0123    -8.3888    -2.5248 C.ar    
  39 C39           -0.8108    -8.1606    -1.4316 C.ar    
  40 O40            0.4992    -9.6352    -2.7618 O.3     
  41 H41           -1.9463    -6.7147    -0.3427 H       
  42 C42            0.1228   -10.6640    -1.8442 C.3     
  43 O43           -1.1648    -0.7006     0.0099 O.3     
  44 C44           -2.3744     0.0601     0.0260 C.3     
  45 C45           -3.5740    -0.8895     0.0328 C.3     
  46 F46           -3.5417    -1.6899    -1.1142 F       
  47 F47           -3.5190    -1.7022     1.1702 F       
  48 C48           -0.0993    -3.1278     4.8016 C.1     
  49 N49            0.0296    -3.0319     5.9262 N.1     
  50 S50           -1.6173    -4.2372    -1.7401 S.o2    
  51 O51           -2.7976    -4.4103    -0.9681 O.2     
  52 O52           -1.5974    -3.5574    -2.9878 O.2     
  53 H53           -0.9590     1.9106     0.0170 H       
  54 H54            3.3426    -0.4937    -0.0325 H       
  55 H55            3.3047     1.9675    -0.0178 H       
  56 H56            1.1569     3.1687     0.0084 H       
  57 H57            4.9741    -1.7685    -2.9359 H       
  58 H58            6.3505    -1.6625    -1.8082 H       
  59 H59            5.3799    -4.1598    -3.2733 H       
  60 H60            6.8934    -3.2718    -3.5751 H       
  61 H61            7.6370    -3.7755    -1.2542 H       
  62 H62            5.0568    -5.4040    -1.1564 H       
  63 H63            6.3352    -5.4219     0.0829 H       
  64 H64            5.9970    -3.0339     0.5320 H       
  65 H65            4.4280    -3.8709     0.6546 H       
  66 H66            6.7373    -6.2292    -2.8318 H       
  67 H67            8.0305    -4.6399    -4.2056 H       
  68 H68            9.2822    -4.5450    -2.9427 H       
  69 H69            8.4692    -7.0610    -4.4687 H       
  70 H70            9.9576    -6.1204    -4.7288 H       
  71 H71            8.1594    -8.2712    -2.4054 H       
  72 H72            9.4201    -8.2194    -1.1503 H       
  73 H73            8.9565    -5.8169    -0.7743 H       
  74 H74            7.4807    -6.7866    -0.5455 H       
  75 H75            1.4477    -2.0262     2.9111 H       
  76 H76           -2.2823    -4.7066     1.0898 H       
  77 H77            0.0934    -5.2616    -3.7953 H       
  78 H78            0.9780    -7.5175    -4.2275 H       
  79 H79           -1.0657    -8.9736    -0.7679 H       
  80 H80            0.5783   -11.6065    -2.1482 H       
  81 H81            0.4653   -10.4012    -0.8433 H       
  82 H82           -0.9621   -10.7691    -1.8411 H       
  83 H83           -2.3995     0.6837     0.9196 H       
  84 H84           -2.4172     0.6932    -0.8603 H       
  85 H85           -4.4966    -0.3093     0.0451 H       
@<TRIPOS>BOND
   1    1    2 ar
   2    1    6 ar
   3    1   53 1
   4    2    3 ar
   5    2   43 1
   6    3    4 ar
   7    3    7 1
   8    4    5 ar
   9    4   54 1
  10    5    6 ar
  11    5   55 1
  12    6   56 1
  13    7    8 1
  14    7    9 1
  15    7   27 1
  16    8   25 2
  17    8   26 am
  18    9   10 1
  19   10   11 am
  20   10   12 2
  21   11   13 1
  22   11   17 1
  23   13   14 1
  24   13   57 1
  25   13   58 1
  26   14   15 1
  27   14   59 1
  28   14   60 1
  29   15   16 1
  30   15   18 1
  31   15   61 1
  32   16   17 1
  33   16   62 1
  34   16   63 1
  35   17   64 1
  36   17   65 1
  37   18   19 1
  38   18   23 1
  39   18   66 1
  40   19   20 1
  41   19   67 1
  42   19   68 1
  43   20   21 1
  44   20   69 1
  45   20   70 1
  46   21   22 1
  47   21   24 1
  48   22   23 1
  49   22   71 1
  50   22   72 1
  51   23   73 1
  52   23   74 1
  53   26   50 am
  54   26   28 1
  55   27   28 ar
  56   27   29 ar
  57   28   32 ar
  58   29   30 ar
  59   29   75 1
  60   30   31 ar
  61   30   48 1
  62   31   32 ar
  63   31   33 1
  64   32   76 1
  65   34   35 ar
  66   34   36 ar
  67   34   50 1
  68   35   41 1
  69   35   39 ar
  70   36   37 ar
  71   36   77 1
  72   37   38 ar
  73   37   78 1
  74   38   39 ar
  75   38   40 1
  76   39   79 1
  77   40   42 1
  78   42   80 1
  79   42   81 1
  80   42   82 1
  81   43   44 1
  82   44   45 1
  83   44   83 1
  84   44   84 1
  85   45   46 1
  86   45   47 1
  87   45   85 1
  88   48   49 3
  89   50   51 2
  90   50   52 2

#	End of record

