#	Name: ASD01814417
#	Creating user name:	WinNT
#	Creation time:	15. 06. 2019 19:32

#	Modifying user name:	WinNT
#	Modification time:	15. 06. 2019 19:32

#	Program:	/corina/corina34_cracker 3.40 0067  02.08.2006

@<TRIPOS>MOLECULE
ASD01814417
  50   55    0    0    0
SMALL
NO_CHARGES


@<TRIPOS>ATOM
   1 C1            -0.0167     1.3819     0.0096 C.ar    
   2 C2             0.0021    -0.0041     0.0020 C.ar    
   3 C3             1.1970    -0.6936    -0.0131 C.ar    
   4 C4             2.3990     0.0034    -0.0209 C.ar    
   5 C5             2.3751     1.4118    -0.0131 C.ar    
   6 C6             1.1661     2.0940     0.0022 C.ar    
   7 N7             3.6102    -0.6578    -0.0356 N.pl3   
   8 N8             4.7455    -0.0611    -0.0428 N.2     
   9 C9             4.8827     1.2394    -0.0372 C.2     
  10 C10            3.6768     2.1036    -0.0219 C.2     
  11 C11            6.0121     2.1719    -0.0430 C.2     
  12 N12            5.4771     3.4117    -0.0316 N.am    
  13 N13            4.0818     3.3390    -0.0193 N.2     
  14 C14            3.5985    -2.1227    -0.0428 C.3     
  15 C15            3.5812    -2.6179    -1.4660 C.ar    
  16 C16            4.7715    -2.8541    -2.1290 C.ar    
  17 C17            4.7588    -3.3076    -3.4335 C.ar    
  18 C18            3.5494    -3.5266    -4.0791 C.ar    
  19 C19            2.3559    -3.2890    -3.4107 C.ar    
  20 C20            2.3750    -2.8406    -2.1045 C.ar    
  21 O21            7.1980     1.8860    -0.0555 O.2     
  22 C22            6.2192     4.6069    -0.0321 C.2     
  23 N23            3.5332    -3.9864    -5.4033 N.pl3   
  24 C24            2.4309    -4.2392    -6.1446 C.2     
  25 C25            2.8419    -4.6637    -7.3620 C.2     
  26 C26            4.2411    -4.6709    -7.3659 C.2     
  27 N27            4.6562    -4.2596    -6.1949 N.2     
  28 C28            5.7093     5.8655    -0.0208 C.2     
  29 N29            6.7495     6.7293    -0.0253 N.pl3   
  30 N30            7.9335     5.9812    -0.0397 N.2     
  31 C31            7.6184     4.7114    -0.0381 C.2     
  32 C32            6.6548     8.1912    -0.0166 C.3     
  33 H33           -0.9605     1.9069     0.0170 H       
  34 H34           -0.9294    -0.5505     0.0084 H       
  35 H35            1.1981    -1.7736    -0.0186 H       
  36 H36            1.1510     3.1739     0.0081 H       
  37 H37            4.4904    -2.4956     0.4608 H       
  38 H38            2.7106    -2.4816     0.4776 H       
  39 H39            5.7120    -2.6835    -1.6263 H       
  40 H40            5.6888    -3.4912    -3.9510 H       
  41 H41            1.4135    -3.4582    -3.9104 H       
  42 H42            1.4469    -2.6555    -1.5840 H       
  43 H43            1.4065    -4.1236    -5.8227 H       
  44 H44            2.2028    -4.9468    -8.1853 H       
  45 H45            4.8702    -4.9616    -8.1943 H       
  46 H46            4.6620     6.1290    -0.0106 H       
  47 H47            8.3150     3.8862    -0.0472 H       
  48 H48            6.6403     8.5483     1.0132 H       
  49 H49            7.5149     8.6141    -0.5357 H       
  50 H50            5.7388     8.4990    -0.5207 H       
@<TRIPOS>BOND
   1    1    2 ar
   2    1    6 ar
   3    1   33 1
   4    2    3 ar
   5    2   34 1
   6    3    4 ar
   7    3   35 1
   8    4    5 ar
   9    4    7 1
  10    5    6 ar
  11    5   10 1
  12    6   36 1
  13    7    8 1
  14    7   14 1
  15    8    9 2
  16    9   10 1
  17    9   11 1
  18   10   13 2
  19   11   12 am
  20   11   21 2
  21   12   13 1
  22   12   22 1
  23   14   15 1
  24   14   37 1
  25   14   38 1
  26   15   16 ar
  27   15   20 ar
  28   16   17 ar
  29   16   39 1
  30   17   18 ar
  31   17   40 1
  32   18   19 ar
  33   18   23 1
  34   19   20 ar
  35   19   41 1
  36   20   42 1
  37   22   28 2
  38   22   31 1
  39   23   24 1
  40   23   27 1
  41   24   25 2
  42   24   43 1
  43   25   26 1
  44   25   44 1
  45   26   27 2
  46   26   45 1
  47   28   29 1
  48   28   46 1
  49   29   30 1
  50   29   32 1
  51   30   31 2
  52   31   47 1
  53   32   48 1
  54   32   49 1
  55   32   50 1

#	End of record

