#	Name: ASD00171059
#	Creating user name:	WinNT
#	Creation time:	15. 06. 2019 18:32

#	Modifying user name:	WinNT
#	Modification time:	15. 06. 2019 18:32

#	Program:	/corina/corina34_cracker 3.40 0067  02.08.2006

@<TRIPOS>MOLECULE
ASD00171059
  58   61    0    0    0
SMALL
NO_CHARGES


@<TRIPOS>ATOM
   1 C1            -0.1445     1.4796     0.0021 C.ar    
   2 C2            -0.0614     0.0896     0.0008 C.ar    
   3 C3            -1.1983    -0.6672     0.0091 C.ar    
   4 C4            -2.4536    -0.0469     0.0191 C.ar    
   5 C5            -2.5400     1.3517     0.0210 C.ar    
   6 C6            -1.3898     2.1074     0.0179 C.ar    
   7 Cl7           -1.4891     3.8405     0.0201 Cl      
   8 C8            -3.6765    -0.8601     0.0271 C.2     
   9 C9            -4.8869    -0.2598     0.0367 C.2     
  10 C10           -6.1039    -1.0691     0.0447 C.2     
  11 N11           -7.3079    -0.4743     0.1595 N.am    
  12 O12           -6.0301    -2.2803    -0.0524 O.2     
  13 C13           -7.4079     0.9732     0.3932 C.3     
  14 C14           -8.2866     1.5871    -0.7037 C.3     
  15 N15           -9.5230     0.7998    -0.8104 N.am    
  16 C16           -9.4230    -0.6477    -1.0441 C.3     
  17 C17           -8.5443    -1.2607     0.0472 C.3     
  18 S18            1.3276     2.4479    -0.0087 S.3     
  19 C19            2.5996     1.2368     0.1325 C.ar    
  20 C20          -10.7270     1.3946    -0.6956 C.2     
  21 C21          -11.9863     0.5744    -0.8073 C.3     
  22 O22          -10.7970     2.5899    -0.5024 O.2     
  23 C23            3.2222     0.7470    -1.0078 C.ar    
  24 C24            4.2232    -0.2056    -0.8963 C.ar    
  25 C25            4.5998    -0.6713     0.3581 C.ar    
  26 C26            3.9765    -0.1790     1.4954 C.ar    
  27 C27            2.9843     0.7754     1.3852 C.ar    
  28 O28            4.8297    -0.6704    -2.0228 O.3     
  29 C29            5.5649    -1.8929    -1.9007 C.3     
  30 C30            6.4364    -1.8060    -0.6405 C.3     
  31 O31            5.5757    -1.6129     0.4872 O.3     
  32 C32            7.2272    -3.1046    -0.4696 C.3     
  33 O33            8.1222    -2.9751     0.6368 O.3     
  34 H34            0.9054    -0.3917    -0.0073 H       
  35 H35           -1.1290    -1.7450     0.0077 H       
  36 H36           -3.5059     1.8349     0.0286 H       
  37 H37           -3.6083    -1.9379     0.0253 H       
  38 H38           -4.9551     0.8180     0.0385 H       
  39 H39           -7.8590     1.1560     1.3685 H       
  40 H40           -6.4138     1.4190     0.3578 H       
  41 H41           -8.5302     2.6172    -0.4435 H       
  42 H42           -7.7546     1.5634    -1.6547 H       
  43 H43          -10.4171    -1.0935    -1.0087 H       
  44 H44           -8.9719    -0.8305    -2.0194 H       
  45 H45           -8.3016    -2.2907    -0.2142 H       
  46 H46           -9.0741    -1.2375     0.9995 H       
  47 H47          -11.9938    -0.1878    -0.0281 H       
  48 H48          -12.8542     1.2232    -0.6891 H       
  49 H49          -12.0218     0.0945    -1.7853 H       
  50 H50            2.9265     1.1080    -1.9817 H       
  51 H51            4.2710    -0.5397     2.4698 H       
  52 H52            2.5011     1.1567     2.2726 H       
  53 H53            4.8730    -2.7305    -1.8122 H       
  54 H54            6.1984    -2.0298    -2.7770 H       
  55 H55            7.1241    -0.9647    -0.7264 H       
  56 H56            6.5377    -3.9283    -0.2847 H       
  57 H57            7.7975    -3.3048    -1.3767 H       
  58 H58            8.6573    -3.7630     0.8042 H       
@<TRIPOS>BOND
   1    1    2 ar
   2    1   18 1
   3    1    6 ar
   4    2    3 ar
   5    2   34 1
   6    3    4 ar
   7    3   35 1
   8    4    5 ar
   9    4    8 1
  10    5    6 ar
  11    5   36 1
  12    6    7 1
  13    8    9 2
  14    8   37 1
  15    9   10 1
  16    9   38 1
  17   10   11 am
  18   10   12 2
  19   11   13 1
  20   11   17 1
  21   13   14 1
  22   13   39 1
  23   13   40 1
  24   14   15 1
  25   14   41 1
  26   14   42 1
  27   15   16 1
  28   15   20 am
  29   16   17 1
  30   16   43 1
  31   16   44 1
  32   17   45 1
  33   17   46 1
  34   18   19 1
  35   19   23 ar
  36   19   27 ar
  37   20   21 1
  38   20   22 2
  39   21   47 1
  40   21   48 1
  41   21   49 1
  42   23   24 ar
  43   23   50 1
  44   24   25 ar
  45   24   28 1
  46   25   26 ar
  47   25   31 1
  48   26   27 ar
  49   26   51 1
  50   27   52 1
  51   28   29 1
  52   29   30 1
  53   29   53 1
  54   29   54 1
  55   30   31 1
  56   30   32 1
  57   30   55 1
  58   32   33 1
  59   32   56 1
  60   32   57 1
  61   33   58 1

#	End of record

