#	Name: ASD03730265
#	Creating user name:	WinNT
#	Creation time:	15. 06. 2019 20:44

#	Modifying user name:	WinNT
#	Modification time:	15. 06. 2019 20:44

#	Program:	/corina/corina34_cracker 3.40 0067  02.08.2006

@<TRIPOS>MOLECULE
ASD03730265
  61   66    0    0    0
SMALL
NO_CHARGES


@<TRIPOS>ATOM
   1 O1            -0.0175     1.4356     0.0099 O.3     
   2 C2             0.0021    -0.0041     0.0020 C.3     
   3 O3             1.2458    -0.3256    -0.6480 O.3     
   4 C4             2.0710     0.7345    -0.4033 C.ar    
   5 C5             1.2934     1.8179    -0.0005 C.ar    
   6 C6             3.4453     0.8645    -0.4912 C.ar    
   7 C7             4.0606     2.0737    -0.1819 C.ar    
   8 C8             3.2725     3.1519     0.2093 C.ar    
   9 C9             1.9026     3.0235     0.3039 C.ar    
  10 O10            5.3837     2.4043    -0.1844 O.3     
  11 C11            4.2100     4.3064     0.4417 C.3     
  12 C12            5.5151     3.8385    -0.2169 C.3     
  13 N13            3.6170     6.4775     0.8360 N.am    
  14 C14            3.7028     5.5818    -0.1677 C.2     
  15 C15            4.3954     4.6087     1.8987 C.ar    
  16 C16            4.8341     3.8614     2.9881 C.ar    
  17 C17            4.8943     4.4515     4.2544 C.ar    
  18 C18            4.5185     5.7698     4.4122 C.ar    
  19 C19            4.0841     6.5088     3.3300 C.ar    
  20 C20            4.0177     5.9360     2.0604 C.ar    
  21 O21            3.4257     5.7693    -1.3335 O.2     
  22 C22            5.2339     2.4542     2.8074 C.2     
  23 C23            5.6565     1.7361     3.8599 C.2     
  24 C24            6.0563     0.3290     3.6793 C.ar    
  25 C25            6.4967    -0.4216     4.7726 C.ar    
  26 C26            6.8687    -1.7379     4.5960 C.ar    
  27 C27            6.8070    -2.3154     3.3400 C.ar    
  28 C28            6.3723    -1.5781     2.2526 C.ar    
  29 C29            5.9911    -0.2626     2.4151 C.ar    
  30 C30            3.1580     7.8580     0.6632 C.3     
  31 C31            1.6421     7.9200     0.8613 C.3     
  32 C32            1.1628     9.3617     0.6809 C.3     
  33 C33           -0.3531     9.4237     0.8790 C.3     
  34 C34           -0.8325    10.8654     0.6986 C.3     
  35 H35           -0.0096    -0.3929     1.0202 H       
  36 H36           -0.8405    -0.3954    -0.5682 H       
  37 H37            4.0449     0.0216    -0.8017 H       
  38 H38            1.3032     3.8658     0.6164 H       
  39 H39            6.3792     4.1614     0.3637 H       
  40 H40            5.5810     4.1980    -1.2438 H       
  41 H41            5.2336     3.8784     5.1046 H       
  42 H42            4.5642     6.2268     5.3897 H       
  43 H43            3.7929     7.5396     3.4681 H       
  44 H44            5.1868     2.0008     1.8283 H       
  45 H45            5.7036     2.1895     4.8390 H       
  46 H46            6.5460     0.0280     5.7533 H       
  47 H47            7.2093    -2.3193     5.4401 H       
  48 H48            7.0999    -3.3464     3.2077 H       
  49 H49            6.3274    -2.0352     1.2752 H       
  50 H50            5.6478     0.3102     1.5664 H       
  51 H51            3.6469     8.4981     1.3976 H       
  52 H52            3.4075     8.2009    -0.3409 H       
  53 H53            1.1532     7.2799     0.1269 H       
  54 H54            1.3926     7.5771     1.8655 H       
  55 H55            1.6516    10.0018     1.4154 H       
  56 H56            1.4123     9.7046    -0.3232 H       
  57 H57           -0.8420     8.7836     0.1446 H       
  58 H58           -0.6026     9.0808     1.8832 H       
  59 H59           -0.3436    11.5055     1.4331 H       
  60 H60           -0.5830    11.2083    -0.3055 H       
  61 H61           -1.9124    10.9096     0.8398 H       
@<TRIPOS>BOND
   1    1    2 1
   2    1    5 1
   3    2    3 1
   4    2   35 1
   5    2   36 1
   6    3    4 1
   7    4    5 ar
   8    4    6 ar
   9    5    9 ar
  10    6    7 ar
  11    6   37 1
  12    7    8 ar
  13    7   10 1
  14    8    9 ar
  15    8   11 1
  16    9   38 1
  17   10   12 1
  18   11   12 1
  19   11   14 1
  20   11   15 1
  21   12   39 1
  22   12   40 1
  23   13   14 am
  24   13   20 1
  25   13   30 1
  26   14   21 2
  27   15   16 ar
  28   15   20 ar
  29   16   17 ar
  30   16   22 1
  31   17   18 ar
  32   17   41 1
  33   18   19 ar
  34   18   42 1
  35   19   20 ar
  36   19   43 1
  37   22   23 2
  38   22   44 1
  39   23   24 1
  40   23   45 1
  41   24   25 ar
  42   24   29 ar
  43   25   26 ar
  44   25   46 1
  45   26   27 ar
  46   26   47 1
  47   27   28 ar
  48   27   48 1
  49   28   29 ar
  50   28   49 1
  51   29   50 1
  52   30   31 1
  53   30   51 1
  54   30   52 1
  55   31   32 1
  56   31   53 1
  57   31   54 1
  58   32   33 1
  59   32   55 1
  60   32   56 1
  61   33   34 1
  62   33   57 1
  63   33   58 1
  64   34   59 1
  65   34   60 1
  66   34   61 1

#	End of record

