#	Name: ASD03092436
#	Creating user name:	WinNT
#	Creation time:	15. 06. 2019 20:32

#	Modifying user name:	WinNT
#	Modification time:	15. 06. 2019 20:32

#	Program:	/corina/corina34_cracker 3.40 0067  02.08.2006

@<TRIPOS>MOLECULE
ASD03092436
  59   62    0    0    0
SMALL
NO_CHARGES


@<TRIPOS>ATOM
   1 N1             0.9009     1.0919    -0.3481 N.pl3   
   2 N2             0.7515    -0.1825    -0.2854 N.2     
   3 C3             1.9283    -0.7744    -0.2404 C.2     
   4 C4             2.9062     0.2477    -0.2798 C.2     
   5 C5             2.2136     1.4087    -0.3474 C.2     
   6 C6             2.1788    -2.2280    -0.1631 C.2     
   7 O7             3.3193    -2.6472    -0.1269 O.2     
   8 N8             1.1428    -3.0896    -0.1327 N.am    
   9 C9            -0.1950     2.0617    -0.4169 C.3     
  10 C10            1.3912    -4.5314    -0.0560 C.3     
  11 S11           -2.0250    -6.4781     0.6773 S.3     
  12 C12           -1.7068    -6.2151    -0.9816 C.2     
  13 N13           -0.5834    -5.5797    -1.1298 N.2     
  14 C14            0.0763    -5.2673    -0.0356 C.2     
  15 C15           -0.5242    -5.6615     1.1068 C.2     
  16 C16            0.5116    -6.2499     4.6684 C.ar    
  17 C17            0.0264    -6.4958     3.4023 C.ar    
  18 C18           -0.0139    -5.4461     2.4749 C.ar    
  19 C19            0.4445    -4.1862     2.8827 C.ar    
  20 C20            0.9129    -4.0303     4.1692 C.ar    
  21 N21            0.9337    -5.0469     5.0113 N.ar    
  22 C22            1.4088    -2.6809     4.6211 C.3     
  23 C23            0.5547    -7.3681     5.6778 C.3     
  24 N24           -2.5278    -6.6212    -2.0178 N.3     
  25 C25           -3.7195    -7.3133    -1.5057 C.3     
  26 C26           -4.5683    -7.7968    -2.6845 C.3     
  27 O27           -4.9046    -6.6805    -3.5128 O.3     
  28 C28           -3.7676    -5.9836    -4.0294 C.3     
  29 C29           -2.9107    -5.4817    -2.8642 C.3     
  30 C30           -4.2359    -4.7933    -4.8689 C.3     
  31 C31           -5.8494    -8.4473    -2.1587 C.3     
  32 H32            3.9792     0.1268    -0.2596 H       
  33 H33            2.6327     2.4030    -0.3928 H       
  34 H34            0.2328    -2.7551    -0.1615 H       
  35 H35           -0.4843     2.3551     0.5922 H       
  36 H36            0.1324     2.9413    -0.9712 H       
  37 H37           -1.0484     1.6102    -0.9228 H       
  38 H38            1.9707    -4.8469    -0.9236 H       
  39 H39            1.9476    -4.7563     0.8539 H       
  40 H40           -0.3169    -7.4826     3.1287 H       
  41 H41            0.4311    -3.3502     2.1990 H       
  42 H42            0.5809    -2.1130     5.0457 H       
  43 H43            2.1839    -2.8128     5.3761 H       
  44 H44            1.8203    -2.1408     3.7684 H       
  45 H45            1.5116    -7.8852     5.6065 H       
  46 H46            0.4376    -6.9572     6.6805 H       
  47 H47           -0.2538    -8.0708     5.4764 H       
  48 H48           -3.4129    -8.1682    -0.9030 H       
  49 H49           -4.3042    -6.6266    -0.8936 H       
  50 H50           -4.0023    -8.5243    -3.2663 H       
  51 H51           -3.1783    -6.6584    -4.6503 H       
  52 H52           -3.4825    -4.7658    -2.2738 H       
  53 H53           -2.0138    -4.9997    -3.2531 H       
  54 H54           -4.8234    -4.1184    -4.2464 H       
  55 H55           -3.3689    -4.2626    -5.2623 H       
  56 H56           -4.8491    -5.1510    -5.6961 H       
  57 H57           -6.4154    -7.7183    -1.5788 H       
  58 H58           -6.4533    -8.7913    -2.9985 H       
  59 H59           -5.5923    -9.2956    -1.5244 H       
@<TRIPOS>BOND
   1    1    2 1
   2    1    5 1
   3    1    9 1
   4    2    3 2
   5    3    4 1
   6    3    6 1
   7    4    5 2
   8    4   32 1
   9    5   33 1
  10    6    7 2
  11    6    8 am
  12    8   10 1
  13    8   34 1
  14    9   35 1
  15    9   36 1
  16    9   37 1
  17   10   14 1
  18   10   38 1
  19   10   39 1
  20   11   12 1
  21   11   15 1
  22   12   13 2
  23   12   24 1
  24   13   14 1
  25   14   15 2
  26   15   18 1
  27   16   17 ar
  28   16   21 ar
  29   16   23 1
  30   17   18 ar
  31   17   40 1
  32   18   19 ar
  33   19   20 ar
  34   19   41 1
  35   20   21 ar
  36   20   22 1
  37   22   42 1
  38   22   43 1
  39   22   44 1
  40   23   45 1
  41   23   46 1
  42   23   47 1
  43   24   25 1
  44   24   29 1
  45   25   26 1
  46   25   48 1
  47   25   49 1
  48   26   27 1
  49   26   31 1
  50   26   50 1
  51   27   28 1
  52   28   29 1
  53   28   30 1
  54   28   51 1
  55   29   52 1
  56   29   53 1
  57   30   54 1
  58   30   55 1
  59   30   56 1
  60   31   57 1
  61   31   58 1
  62   31   59 1

#	End of record

