#	Name: ASD00560004
#	Creating user name:	WinNT
#	Creation time:	15. 06. 2019 18:36

#	Modifying user name:	WinNT
#	Modification time:	15. 06. 2019 18:36

#	Program:	/corina/corina34_cracker 3.40 0067  02.08.2006

@<TRIPOS>MOLECULE
ASD00560004
  58   63    0    0    0
SMALL
NO_CHARGES


@<TRIPOS>ATOM
   1 C1            -0.0169     1.3937     0.0097 C.2     
   2 C2             0.0021    -0.0041     0.0020 C.2     
   3 N3            -1.3102    -0.4066     0.0131 N.pl3   
   4 C4            -2.0863     0.7214     0.0271 C.2     
   5 N5            -1.3190     1.7824     0.0296 N.2     
   6 C6             1.2140     2.0874     0.0017 C.2     
   7 N7             2.3572     1.3671    -0.0131 N.am    
   8 C8             2.3120     0.0049    -0.0204 C.2     
   9 N9             1.1733    -0.6513    -0.0129 N.2     
  10 O10            1.2440     3.3067     0.0075 O.2     
  11 N11            3.4893    -0.7018    -0.0359 N.pl3   
  12 S12           -3.8481     0.7420     0.0441 S.3     
  13 C13           -1.7922    -1.7900     0.0102 C.3     
  14 O14           -2.8733    -1.9348     0.9559 O.3     
  15 C15           -4.0591    -2.2283     0.2382 C.3     
  16 C16           -3.5804    -3.0013    -1.0194 C.3     
  17 C17           -2.3515    -2.1507    -1.3923 C.3     
  18 C18           -5.1217    -3.0375     0.9521 C.3     
  19 O19           -4.6520    -2.9194    -1.9659 O.3     
  20 P20           -6.1015    -3.4915    -1.4827 P.3     
  21 O21           -6.2750    -3.0780     0.0775 O.3     
  22 O22           -7.2755    -2.8272    -2.3616 O.3     
  23 O23           -6.1355    -4.9646    -1.6221 O.2     
  24 O24           -2.7385    -0.9760    -2.1081 O.3     
  25 C25           -4.1414     2.5280     0.0571 C.3     
  26 C26           -5.6475     2.7974     0.0732 C.3     
  27 C27           -5.8954     4.3071     0.0842 C.3     
  28 C28           -7.3788     4.5724     0.1000 C.ar    
  29 C29           -8.0854     4.5863     1.3183 C.ar    
  30 C30           -9.5455     4.8519     1.2916 C.ar    
  31 C31          -10.1682     5.0795     0.0490 C.ar    
  32 C32           -9.4234     5.0506    -1.0838 C.ar    
  33 C33           -8.0446     4.8055    -1.0581 C.ar    
  34 N34           -7.8437     4.4245     2.5957 N.2     
  35 O35           -8.8803     4.5539     3.2156 O.3     
  36 N36           -9.8735     4.7937     2.5587 N.2     
  37 N37          -11.6224     5.3475    -0.0198 N.pl3   
  38 O38          -12.1552     5.5436    -1.0974 O.2     
  39 O39          -12.2861     5.3719     1.0012 O.2     
  40 H40            3.2141     1.8216    -0.0188 H       
  41 H41            4.3375    -0.2312    -0.0415 H       
  42 H42            3.4728    -1.6717    -0.0413 H       
  43 H43           -0.9783    -2.4662     0.2717 H       
  44 H44           -4.5092    -1.2899    -0.0858 H       
  45 H45           -3.3089    -4.0321    -0.7916 H       
  46 H46           -1.6297    -2.7349    -1.9632 H       
  47 H47           -4.7586    -4.0485     1.1369 H       
  48 H48           -5.3854    -2.5572     1.8944 H       
  49 H49           -8.1633    -3.1270    -2.1226 H       
  50 H50           -1.9978    -0.4094    -2.3639 H       
  51 H51           -3.6848     2.9648     0.9453 H       
  52 H52           -3.7019     2.9749    -0.8346 H       
  53 H53           -6.1041     2.3606    -0.8150 H       
  54 H54           -6.0870     2.3505     0.9649 H       
  55 H55           -5.4388     4.7439     0.9723 H       
  56 H56           -5.4559     4.7540    -0.8075 H       
  57 H57           -9.9069     5.2259    -2.0334 H       
  58 H58           -7.4970     4.7935    -1.9889 H       
@<TRIPOS>BOND
   1    1    2 2
   2    1    6 1
   3    1    5 1
   4    2    3 1
   5    2    9 1
   6    3    4 1
   7    3   13 1
   8    4    5 2
   9    4   12 1
  10    6    7 am
  11    6   10 2
  12    7    8 1
  13    7   40 1
  14    8    9 2
  15    8   11 1
  16   11   41 1
  17   11   42 1
  18   12   25 1
  19   13   14 1
  20   13   17 1
  21   13   43 1
  22   14   15 1
  23   15   16 1
  24   15   18 1
  25   15   44 1
  26   16   17 1
  27   16   19 1
  28   16   45 1
  29   17   24 1
  30   17   46 1
  31   18   21 1
  32   18   47 1
  33   18   48 1
  34   19   20 1
  35   20   21 1
  36   20   22 1
  37   20   23 2
  38   22   49 1
  39   24   50 1
  40   25   26 1
  41   25   51 1
  42   25   52 1
  43   26   27 1
  44   26   53 1
  45   26   54 1
  46   27   28 1
  47   27   55 1
  48   27   56 1
  49   28   29 ar
  50   28   33 ar
  51   29   30 ar
  52   29   34 2
  53   30   31 ar
  54   30   36 2
  55   31   32 ar
  56   31   37 1
  57   32   33 ar
  58   32   57 1
  59   33   58 1
  60   34   35 1
  61   35   36 1
  62   37   38 2
  63   37   39 2

#	End of record

