#	Name: ASD08150272
#	Creating user name:	WinNT
#	Creation time:	15. 06. 2019 21:15

#	Modifying user name:	WinNT
#	Modification time:	15. 06. 2019 21:15

#	Program:	/corina/corina34_cracker 3.40 0067  02.08.2006

@<TRIPOS>MOLECULE
ASD08150272
  30   31    0    0    0
SMALL
NO_CHARGES


@<TRIPOS>ATOM
   1 N1            -0.0179     1.4659     0.0101 N.3     
   2 C2             0.0021    -0.0041     0.0020 C.3     
   3 C3             0.7497    -0.4921    -1.2417 C.3     
   4 O4             2.0659     0.0673    -1.2506 O.3     
   5 C5             2.0838     1.4973    -1.2437 C.3     
   6 C6             1.3496     2.0055    -0.0001 C.3     
   7 C7            -0.7765     1.9758     1.1601 C.3     
   8 C8            -0.5725     3.4644     1.2763 C.ar    
   9 C9            -1.4269     4.3324     0.6222 C.ar    
  10 C10           -1.2398     5.6977     0.7287 C.ar    
  11 C11           -0.1984     6.1953     1.4899 C.ar    
  12 C12            0.6552     5.3276     2.1446 C.ar    
  13 C13            0.4654     3.9620     2.0415 C.ar    
  14 N14           -2.1540     6.6269     0.0276 N.pl3   
  15 O15           -3.0712     6.1885    -0.6433 O.2     
  16 O16           -1.9891     7.8301     0.1215 O.2     
  17 H17            0.5087    -0.3661     0.8967 H       
  18 H18           -1.0202    -0.3818    -0.0162 H       
  19 H19            0.8167    -1.5799    -1.2226 H       
  20 H20            0.2136    -0.1754    -2.1363 H       
  21 H21            3.1155     1.8483    -1.2262 H       
  22 H22            1.5864     1.8718    -2.1384 H       
  23 H23            1.3110     3.0946    -0.0198 H       
  24 H24            1.8778     1.6756     0.8946 H       
  25 H25           -1.8364     1.7643     1.0189 H       
  26 H26           -0.4270     1.4890     2.0706 H       
  27 H27           -2.2404     3.9436     0.0276 H       
  28 H28           -0.0518     7.2621     1.5725 H       
  29 H29            1.4689     5.7164     2.7388 H       
  30 H30            1.1303     3.2841     2.5560 H       
@<TRIPOS>BOND
   1    1    2 1
   2    1    6 1
   3    1    7 1
   4    2    3 1
   5    2   17 1
   6    2   18 1
   7    3    4 1
   8    3   19 1
   9    3   20 1
  10    4    5 1
  11    5    6 1
  12    5   21 1
  13    5   22 1
  14    6   23 1
  15    6   24 1
  16    7    8 1
  17    7   25 1
  18    7   26 1
  19    8    9 ar
  20    8   13 ar
  21    9   10 ar
  22    9   27 1
  23   10   11 ar
  24   10   14 1
  25   11   12 ar
  26   11   28 1
  27   12   13 ar
  28   12   29 1
  29   13   30 1
  30   14   15 2
  31   14   16 2

#	End of record

