#	Name: ASD03331213
#	Creating user name:	WinNT
#	Creation time:	15. 06. 2019 20:38

#	Modifying user name:	WinNT
#	Modification time:	15. 06. 2019 20:38

#	Program:	/corina/corina34_cracker 3.40 0067  02.08.2006

@<TRIPOS>MOLECULE
ASD03331213
  43   45    0    0    0
SMALL
NO_CHARGES


@<TRIPOS>ATOM
   1 N1            -0.0486     1.4517     0.2843 N.am    
   2 C2            -0.0347     0.0102     0.5760 C.3     
   3 C3             0.7216    -0.7066    -0.5475 C.3     
   4 N4             2.0464    -0.0931    -0.7106 N.3     
   5 C5             1.9356     1.3118    -1.1253 C.3     
   6 C6             1.2290     2.1113    -0.0254 C.3     
   7 C7            -1.2021     2.1486     0.2949 C.2     
   8 O8            -2.2600     1.5708     0.4547 O.2     
   9 N9            -1.1831     3.4859     0.1284 N.am    
  10 C10           -2.3862     4.1969     0.0329 C.ar    
  11 C11           -3.5642     3.5322    -0.2768 C.ar    
  12 C12           -4.7496     4.2362    -0.3705 C.ar    
  13 C13           -4.7640     5.6018    -0.1561 C.ar    
  14 C14           -3.5924     6.2690     0.1525 C.ar    
  15 C15           -2.4038     5.5700     0.2539 C.ar    
  16 C16            2.8679    -0.8584    -1.6579 C.3     
  17 C17            4.1136    -0.0771    -1.9878 C.ar    
  18 C18            5.2540    -0.2404    -1.2240 C.ar    
  19 C19            6.3972     0.4763    -1.5256 C.ar    
  20 C20            6.4002     1.3566    -2.5920 C.ar    
  21 C21            5.2582     1.5198    -3.3572 C.ar    
  22 C22            4.1170     0.7985    -3.0577 C.ar    
  23 Br23           5.2607     2.7238    -4.8154 Br      
  24 Br24           7.9634     2.3375    -3.0044 Br      
  25 F25           -1.2604     6.2205     0.5615 F       
  26 H26            0.4685    -0.1661     1.5267 H       
  27 H27           -1.0575    -0.3633     0.6252 H       
  28 H28            0.8375    -1.7602    -0.2934 H       
  29 H29            0.1617    -0.6160    -1.4783 H       
  30 H30            2.9319     1.7220    -1.2901 H       
  31 H31            1.3588     1.3743    -2.0480 H       
  32 H32            1.0417     3.1270    -0.3739 H       
  33 H33            1.8537     2.1369     0.8675 H       
  34 H34           -0.3363     3.9559     0.0747 H       
  35 H35           -3.5545     2.4654    -0.4450 H       
  36 H36           -5.6663     3.7187    -0.6119 H       
  37 H37           -5.6922     6.1490    -0.2300 H       
  38 H38           -3.6068     7.3360     0.3187 H       
  39 H39            3.1454    -1.8125    -1.2099 H       
  40 H40            2.2989    -1.0372    -2.5703 H       
  41 H41            5.2519    -0.9279    -0.3911 H       
  42 H42            7.2877     0.3488    -0.9280 H       
  43 H43            3.2258     0.9254    -3.6544 H       
@<TRIPOS>BOND
   1    1    2 1
   2    1    6 1
   3    1    7 am
   4    2    3 1
   5    2   26 1
   6    2   27 1
   7    3    4 1
   8    3   28 1
   9    3   29 1
  10    4    5 1
  11    4   16 1
  12    5    6 1
  13    5   30 1
  14    5   31 1
  15    6   32 1
  16    6   33 1
  17    7    8 2
  18    7    9 am
  19    9   10 1
  20    9   34 1
  21   10   11 ar
  22   10   15 ar
  23   11   12 ar
  24   11   35 1
  25   12   13 ar
  26   12   36 1
  27   13   14 ar
  28   13   37 1
  29   14   15 ar
  30   14   38 1
  31   15   25 1
  32   16   17 1
  33   16   39 1
  34   16   40 1
  35   17   18 ar
  36   17   22 ar
  37   18   19 ar
  38   18   41 1
  39   19   20 ar
  40   19   42 1
  41   20   21 ar
  42   20   24 1
  43   21   22 ar
  44   21   23 1
  45   22   43 1

#	End of record

