#	Name: ASD01908068
#	Creating user name:	WinNT
#	Creation time:	15. 06. 2019 19:54

#	Modifying user name:	WinNT
#	Modification time:	15. 06. 2019 19:54

#	Program:	/corina/corina34_cracker 3.40 0067  02.08.2006

@<TRIPOS>MOLECULE
ASD01908068
  28   30    0    0    0
SMALL
NO_CHARGES


@<TRIPOS>ATOM
   1 S1            -0.0213     1.6965     0.0469 S.3     
   2 N2             0.0006    -0.0026     0.0368 N.2     
   3 C3             1.2643    -0.3420     0.0043 C.2     
   4 N4             2.1566     0.6302    -0.0118 N.2     
   5 C5             1.6930     1.8602     0.0063 C.2     
   6 N6             2.4254     3.0352    -0.0055 N.pl3   
   7 C7             1.7729     4.2611    -0.0980 C.ar    
   8 C8             2.5034     5.4404     0.0060 C.ar    
   9 C9             1.8422     6.6517    -0.0877 C.ar    
  10 C10            0.4674     6.6428    -0.2831 C.ar    
  11 C11           -0.1944     5.4349    -0.3774 C.ar    
  12 N12            0.4633     4.2944    -0.2896 N.ar    
  13 N13            2.9034    -3.5812    -0.0515 N.pl3   
  14 N14            1.5566    -3.9628    -0.0217 N.2     
  15 C15            0.8198    -2.8839     0.0013 C.2     
  16 C16            1.6784    -1.7673    -0.0132 C.2     
  17 C17            2.9601    -2.2344    -0.0459 C.2     
  18 C18           -0.6862    -2.8416     0.0366 C.3     
  19 H19            3.3933     3.0040     0.0507 H       
  20 H20            3.5722     5.4105     0.1583 H       
  21 H21            2.3830     7.5833    -0.0103 H       
  22 H22           -0.0787     7.5714    -0.3602 H       
  23 H23           -1.2636     5.4234    -0.5290 H       
  24 H24            3.6644    -4.1824    -0.0690 H       
  25 H25            3.8575    -1.6338    -0.0637 H       
  26 H26           -1.0253    -2.8365     1.0725 H       
  27 H27           -1.0362    -1.9392    -0.4647 H       
  28 H28           -1.0864    -3.7185    -0.4723 H       
@<TRIPOS>BOND
   1    1    2 1
   2    1    5 1
   3    2    3 2
   4    3    4 1
   5    3   16 1
   6    4    5 2
   7    5    6 1
   8    6    7 1
   9    6   19 1
  10    7    8 ar
  11    7   12 ar
  12    8    9 ar
  13    8   20 1
  14    9   10 ar
  15    9   21 1
  16   10   11 ar
  17   10   22 1
  18   11   12 ar
  19   11   23 1
  20   13   14 1
  21   13   17 1
  22   13   24 1
  23   14   15 2
  24   15   16 1
  25   15   18 1
  26   16   17 2
  27   17   25 1
  28   18   26 1
  29   18   27 1
  30   18   28 1

#	End of record

