#	Name: ASD01940234
#	Creating user name:	WinNT
#	Creation time:	15. 06. 2019 20:12

#	Modifying user name:	WinNT
#	Modification time:	15. 06. 2019 20:12

#	Program:	/corina/corina34_cracker 3.40 0067  02.08.2006

@<TRIPOS>MOLECULE
ASD01940234
  39   40    0    0    0
SMALL
NO_CHARGES


@<TRIPOS>ATOM
   1 F1             1.8883     1.5265     2.2305 F       
   2 C2             1.0505     2.1288     1.3583 C.ar    
   3 C3             1.3730     2.1817     0.0088 C.ar    
   4 C4             0.5054     2.8043    -0.8873 C.ar    
   5 C5            -0.6753     3.3678    -0.4272 C.ar    
   6 C6            -0.9912     3.3120     0.9179 C.ar    
   7 C7            -0.1340     2.6892     1.8090 C.ar    
   8 N8             2.5677     1.6112    -0.4512 N.pl3   
   9 N9             0.8260     2.8611    -2.2503 N.am    
  10 C10            2.6084     0.2553    -0.7961 C.ar    
  11 C11            1.4486    -0.5075    -0.7523 C.ar    
  12 C12            1.4885    -1.8450    -1.0929 C.ar    
  13 C13            2.6888    -2.4276    -1.4794 C.ar    
  14 C14            3.8492    -1.6644    -1.5232 C.ar    
  15 C15            3.8079    -0.3261    -1.1877 C.ar    
  16 C16            5.0663     0.5017    -1.2351 C.3     
  17 F17           -0.4505     2.6323     3.1211 F       
  18 S18            0.4140     4.1938    -3.1429 S.o2    
  19 C19            1.2723     5.5680    -2.3271 C.3     
  20 O20            0.9762     3.9449    -4.4240 O.2     
  21 O21           -0.9915     4.3107    -2.9698 O.2     
  22 S22            2.7401    -4.1345    -1.9136 S.3     
  23 C23            1.0181    -4.6624    -1.6977 C.3     
  24 H24           -1.3484     3.8508    -1.1199 H       
  25 H25           -1.9113     3.7516     1.2736 H       
  26 H26            3.3663     2.1560    -0.5305 H       
  27 H27            1.2892     2.1199    -2.6709 H       
  28 H28            0.5155    -0.0545    -0.4515 H       
  29 H29            0.5867    -2.4381    -1.0585 H       
  30 H30            4.7824    -2.1173    -1.8237 H       
  31 H31            5.1751     0.9410    -2.2267 H       
  32 H32            5.0073     1.2955    -0.4905 H       
  33 H33            5.9268    -0.1327    -1.0224 H       
  34 H34            2.3468     5.3849    -2.3413 H       
  35 H35            1.0550     6.4966    -2.8548 H       
  36 H36            0.9310     5.6481    -1.2951 H       
  37 H37            0.7160    -4.5023    -0.6628 H       
  38 H38            0.3744    -4.0813    -2.3582 H       
  39 H39            0.9291    -5.7208    -1.9426 H       
@<TRIPOS>BOND
   1    1    2 1
   2    2    3 ar
   3    2    7 ar
   4    3    4 ar
   5    3    8 1
   6    4    5 ar
   7    4    9 1
   8    5    6 ar
   9    5   24 1
  10    6    7 ar
  11    6   25 1
  12    7   17 1
  13    8   10 1
  14    8   26 1
  15    9   18 am
  16    9   27 1
  17   10   11 ar
  18   10   15 ar
  19   11   12 ar
  20   11   28 1
  21   12   13 ar
  22   12   29 1
  23   13   14 ar
  24   13   22 1
  25   14   15 ar
  26   14   30 1
  27   15   16 1
  28   16   31 1
  29   16   32 1
  30   16   33 1
  31   18   19 1
  32   18   20 2
  33   18   21 2
  34   19   34 1
  35   19   35 1
  36   19   36 1
  37   22   23 1
  38   23   37 1
  39   23   38 1
  40   23   39 1

#	End of record

