#	Name: ASD01948257
#	Creating user name:	WinNT
#	Creation time:	15. 06. 2019 20:14

#	Modifying user name:	WinNT
#	Modification time:	15. 06. 2019 20:14

#	Program:	/corina/corina34_cracker 3.40 0067  02.08.2006

@<TRIPOS>MOLECULE
ASD01948257
  28   30    0    0    0
SMALL
NO_CHARGES


@<TRIPOS>ATOM
   1 C1             0.7304    -0.0186     0.8747 C.ar    
   2 C2             0.0195    -0.0134    -0.3126 C.ar    
   3 C3             0.4903     0.6976    -1.4012 C.ar    
   4 C4             1.6730     1.4060    -1.3075 C.ar    
   5 C5             2.3899     1.4040    -0.1187 C.ar    
   6 C6             1.9143     0.6878     0.9755 C.ar    
   7 C7             4.8842     0.0982    -0.3145 C.ar    
   8 C8             4.8080     1.4356     0.0696 C.ar    
   9 N9             3.5869     2.1199    -0.0209 N.pl3   
  10 C10            6.0801    -0.5844    -0.2296 C.ar    
  11 C11            7.2227     0.0685     0.2444 C.ar    
  12 C12            7.1470     1.4138     0.6314 C.ar    
  13 C13            5.9371     2.0940     0.5424 C.ar    
  14 N14            5.8567     3.4412     0.9283 N.pl3   
  15 I15           -1.7740    -1.0860    -0.4614 I       
  16 F16            6.1473    -1.8810    -0.6030 F       
  17 F17            2.6082     0.6833     2.1347 F       
  18 F18            3.7798    -0.5349    -0.7671 F       
  19 O19            8.3896     1.7614     1.0368 O.3     
  20 C20            9.1869     0.6887     0.9065 C.2     
  21 N21            8.5131    -0.3188     0.4403 N.2     
  22 H22            0.3577    -0.5712     1.7244 H       
  23 H23           -0.0671     0.6990    -2.3263 H       
  24 H24            2.0396     1.9606    -2.1587 H       
  25 H25            3.5729     3.0898    -0.0157 H       
  26 H26            6.6457     3.8992     1.2577 H       
  27 H27            5.0121     3.9140     0.8656 H       
  28 H28           10.2380     0.6671     1.1540 H       
@<TRIPOS>BOND
   1    1    2 ar
   2    1    6 ar
   3    1   22 1
   4    2    3 ar
   5    2   15 1
   6    3    4 ar
   7    3   23 1
   8    4    5 ar
   9    4   24 1
  10    5    6 ar
  11    5    9 1
  12    6   17 1
  13    7    8 ar
  14    7   10 ar
  15    7   18 1
  16    8    9 1
  17    8   13 ar
  18    9   25 1
  19   10   11 ar
  20   10   16 1
  21   11   12 ar
  22   11   21 1
  23   12   13 ar
  24   12   19 1
  25   13   14 1
  26   14   26 1
  27   14   27 1
  28   19   20 1
  29   20   21 2
  30   20   28 1

#	End of record

