#	Name: ASD03920005
#	Creating user name:	WinNT
#	Creation time:	15. 06. 2019 20:47

#	Modifying user name:	WinNT
#	Modification time:	15. 06. 2019 20:47

#	Program:	/corina/corina34_cracker 3.40 0067  02.08.2006

@<TRIPOS>MOLECULE
ASD03920005
  58   62    0    0    0
SMALL
NO_CHARGES


@<TRIPOS>ATOM
   1 C1            -0.0184     1.5028     0.0103 C.2     
   2 C2             0.0021    -0.0041     0.0020 C.3     
   3 O3             1.0236     2.1234     0.0037 O.2     
   4 N4            -1.1946     2.1607     0.0195 N.am    
   5 C5            -1.2145     3.6256     0.0275 C.3     
   6 C6            -2.5315     4.1210    -0.5732 C.3     
   7 C7            -3.7021     3.5905     0.2569 C.3     
   8 C8            -3.5765     4.0944     1.6961 C.3     
   9 C9            -2.2595     3.5989     2.2968 C.3     
  10 C10           -1.0888     4.1294     1.4667 C.3     
  11 N11           -4.6975     3.5864     2.4909 N.pl3   
  12 N12           -5.9026     4.2518     2.7572 N.2     
  13 N13           -6.6363     3.4857     3.4870 N.2     
  14 C14           -5.9847     2.3348     3.7265 C.2     
  15 C15           -4.7710     2.3870     3.1020 C.2     
  16 C16           -6.4958     1.2045     4.5250 C.2     
  17 O17           -5.8142     0.2088     4.6750 O.2     
  18 N18           -7.7182     1.2755     5.0881 N.am    
  19 C19           -8.3477     0.2274     5.9046 C.3     
  20 C20           -9.7466     0.7391     6.3081 C.3     
  21 C21          -10.0500     1.8099     5.2270 C.3     
  22 C22           -8.6430     2.4197     4.9927 C.3     
  23 O23            5.3234    -1.8055     0.2024 O.3     
  24 C24            5.3157    -2.2411     1.5748 C.3     
  25 O25            4.2717    -1.4539     2.1777 O.3     
  26 C26            3.4062    -1.1588     1.1643 C.ar    
  27 C27            4.0530    -1.3751    -0.0505 C.ar    
  28 C28            2.0944    -0.7145     1.1767 C.ar    
  29 C29            1.4295    -0.4870    -0.0142 C.ar    
  30 C30            2.0711    -0.7020    -1.2194 C.ar    
  31 C31            3.3808    -1.1451    -1.2394 C.ar    
  32 H32           -0.4983    -0.3791     0.8948 H       
  33 H33           -0.5153    -0.3696    -0.8850 H       
  34 H34           -2.0280     1.6644     0.0207 H       
  35 H35           -0.3805     4.0035    -0.5638 H       
  36 H36           -2.5463     5.2109    -0.5672 H       
  37 H37           -2.6210     3.7621    -1.5985 H       
  38 H38           -4.6404     3.9435    -0.1711 H       
  39 H39           -3.6873     2.5007     0.2509 H       
  40 H40           -3.5913     5.1843     1.7021 H       
  41 H41           -2.1700     3.9578     3.3221 H       
  42 H42           -2.2447     2.5090     2.2908 H       
  43 H43           -0.1506     3.7764     1.8947 H       
  44 H44           -1.1036     5.2193     1.4727 H       
  45 H45           -4.0146     1.6161     3.0998 H       
  46 H46           -8.4420    -0.6894     5.3225 H       
  47 H47           -7.7490     0.0426     6.7965 H       
  48 H48          -10.4786    -0.0675     6.2681 H       
  49 H49           -9.7210     1.1894     7.3004 H       
  50 H50          -10.4361     1.3488     4.3179 H       
  51 H51          -10.7419     2.5623     5.6057 H       
  52 H52           -8.4140     3.1577     5.7614 H       
  53 H53           -8.5861     2.8719     4.0025 H       
  54 H54            5.0796    -3.3033     1.6382 H       
  55 H55            6.2750    -2.0320     2.0484 H       
  56 H56            1.5904    -0.5464     2.1170 H       
  57 H57            1.5484    -0.5232    -2.1474 H       
  58 H58            3.8799    -1.3116    -2.1826 H       
@<TRIPOS>BOND
   1    1    2 1
   2    1    3 2
   3    1    4 am
   4    2   29 1
   5    2   32 1
   6    2   33 1
   7    4    5 1
   8    4   34 1
   9    5    6 1
  10    5   10 1
  11    5   35 1
  12    6    7 1
  13    6   36 1
  14    6   37 1
  15    7    8 1
  16    7   38 1
  17    7   39 1
  18    8    9 1
  19    8   11 1
  20    8   40 1
  21    9   10 1
  22    9   41 1
  23    9   42 1
  24   10   43 1
  25   10   44 1
  26   11   12 1
  27   11   15 1
  28   12   13 2
  29   13   14 1
  30   14   15 2
  31   14   16 1
  32   15   45 1
  33   16   17 2
  34   16   18 am
  35   18   19 1
  36   18   22 1
  37   19   20 1
  38   19   46 1
  39   19   47 1
  40   20   21 1
  41   20   48 1
  42   20   49 1
  43   21   22 1
  44   21   50 1
  45   21   51 1
  46   22   52 1
  47   22   53 1
  48   23   24 1
  49   23   27 1
  50   24   25 1
  51   24   54 1
  52   24   55 1
  53   25   26 1
  54   26   27 ar
  55   26   28 ar
  56   27   31 ar
  57   28   29 ar
  58   28   56 1
  59   29   30 ar
  60   30   31 ar
  61   30   57 1
  62   31   58 1

#	End of record

