#	Name: ASD01816748
#	Creating user name:	WinNT
#	Creation time:	15. 06. 2019 19:35

#	Modifying user name:	WinNT
#	Modification time:	15. 06. 2019 19:35

#	Program:	/corina/corina34_cracker 3.40 0067  02.08.2006

@<TRIPOS>MOLECULE
ASD01816748
  61   65    0    0    0
SMALL
NO_CHARGES


@<TRIPOS>ATOM
   1 C1            -0.0155     1.3879     0.0078 C.2     
   2 C2             0.0057    -0.0135     0.0000 C.2     
   3 C3             1.2031    -0.6668    -0.0145 C.2     
   4 C4             2.3953     0.0765    -0.0215 C.2     
   5 N5             2.3451     1.4441    -0.0132 N.am    
   6 C6             1.1423     2.0862     0.0009 C.2     
   7 C7             3.6271    -0.5920    -0.0363 C.2     
   8 C8             4.7910     0.1214    -0.0432 C.2     
   9 C9             4.7351     1.5266    -0.0352 C.2     
  10 C10            3.4814     2.1697    -0.0200 C.2     
  11 C11            3.6668    -2.0985    -0.0442 C.3     
  12 O12            3.4240     3.3879    -0.0129 O.2     
  13 C13            5.9710     2.3159    -0.0418 C.2     
  14 N14            6.6587     2.5007     1.1025 N.am    
  15 O15            6.3758     2.8042    -1.0806 O.2     
  16 N16            3.7874    -2.5779    -1.4275 N.3     
  17 C17            4.0665    -4.0203    -1.4626 C.3     
  18 C18            4.1058    -4.4944    -2.9173 C.3     
  19 N19            5.1370    -3.7434    -3.6469 N.3     
  20 C20            4.8578    -2.3010    -3.6118 C.3     
  21 C21            4.8186    -1.8269    -2.1571 C.3     
  22 C22            5.2513    -4.1977    -4.9576 C.ar    
  23 C23            6.1769    -3.6129    -5.8168 C.ar    
  24 C24            6.2926    -4.0597    -7.1136 C.ar    
  25 C25            5.4792    -5.1025    -7.5672 C.ar    
  26 C26            4.5507    -5.6879    -6.7012 C.ar    
  27 C27            4.4437    -5.2395    -5.4042 C.ar    
  28 C28            7.9572     3.1930     1.1026 C.3     
  29 C29            7.9208     4.2888     2.1739 C.3     
  30 O30            7.5055     3.7181     3.4171 O.3     
  31 C31            6.1854     3.1697     3.3974 C.3     
  32 C32            6.1303     2.0215     2.3896 C.3     
  33 C33            5.5964    -5.5695    -8.9158 C.1     
  34 N34            5.6894    -5.9400    -9.9857 N.1     
  35 H35           -0.9599     1.9118     0.0149 H       
  36 H36           -0.9188    -0.5717     0.0059 H       
  37 H37            1.2343    -1.7464    -0.0203 H       
  38 H38            1.1140     3.1658     0.0072 H       
  39 H39            5.7436    -0.3874    -0.0543 H       
  40 H40            4.5233    -2.4424     0.5355 H       
  41 H41            2.7494    -2.4884     0.3967 H       
  42 H42            5.0292    -4.2159    -0.9902 H       
  43 H43            3.2827    -4.5555    -0.9267 H       
  44 H44            4.3413    -5.5582    -2.9468 H       
  45 H45            3.1346    -4.3236    -3.3817 H       
  46 H46            5.6417    -1.7658    -4.1477 H       
  47 H47            3.8952    -2.1054    -4.0842 H       
  48 H48            4.5830    -0.7631    -2.1276 H       
  49 H49            5.7898    -1.9977    -1.6927 H       
  50 H50            6.8049    -2.8075    -5.4658 H       
  51 H51            7.0105    -3.6051    -7.7801 H       
  52 H52            3.9206    -6.4934    -7.0485 H       
  53 H53            3.7269    -5.6915    -4.7347 H       
  54 H54            8.7519     2.4827     1.3309 H       
  55 H55            8.1344     3.6411     0.1249 H       
  56 H56            8.9149     4.7216     2.2859 H       
  57 H57            7.2163     5.0655     1.8764 H       
  58 H58            5.9311     2.7973     4.3898 H       
  59 H59            5.4746     3.9423     3.1044 H       
  60 H60            5.0989     1.6917     2.2648 H       
  61 H61            6.7412     1.1916     2.7448 H       
@<TRIPOS>BOND
   1    1    2 1
   2    1    6 2
   3    1   35 1
   4    2    3 2
   5    2   36 1
   6    3    4 1
   7    3   37 1
   8    4    5 1
   9    4    7 2
  10    5    6 1
  11    5   10 am
  12    6   38 1
  13    7    8 1
  14    7   11 1
  15    8    9 2
  16    8   39 1
  17    9   10 1
  18    9   13 1
  19   10   12 2
  20   11   16 1
  21   11   40 1
  22   11   41 1
  23   13   15 2
  24   13   14 am
  25   14   28 1
  26   14   32 1
  27   16   17 1
  28   16   21 1
  29   17   18 1
  30   17   42 1
  31   17   43 1
  32   18   19 1
  33   18   44 1
  34   18   45 1
  35   19   20 1
  36   19   22 1
  37   20   21 1
  38   20   46 1
  39   20   47 1
  40   21   48 1
  41   21   49 1
  42   22   23 ar
  43   22   27 ar
  44   23   24 ar
  45   23   50 1
  46   24   25 ar
  47   24   51 1
  48   25   26 ar
  49   25   33 1
  50   26   27 ar
  51   26   52 1
  52   27   53 1
  53   28   29 1
  54   28   54 1
  55   28   55 1
  56   29   30 1
  57   29   56 1
  58   29   57 1
  59   30   31 1
  60   31   32 1
  61   31   58 1
  62   31   59 1
  63   32   60 1
  64   32   61 1
  65   33   34 3

#	End of record

