#	Name: ASD00840759
#	Creating user name:	WinNT
#	Creation time:	15. 06. 2019 18:39

#	Modifying user name:	WinNT
#	Modification time:	15. 06. 2019 18:39

#	Program:	/corina/corina34_cracker 3.40 0067  02.08.2006

@<TRIPOS>MOLECULE
ASD00840759
  84   89    0    0    0
SMALL
NO_CHARGES


@<TRIPOS>ATOM
   1 F1             6.0703    -1.9371    -2.0353 F       
   2 N2             1.0651     1.4645    -0.7439 N.ar    
   3 C3             1.3276     0.1732    -0.8554 C.ar    
   4 C4             1.2494    -0.6631     0.2511 C.ar    
   5 C5             0.8924    -0.1274     1.4760 C.ar    
   6 C6             0.6249     1.2328     1.5511 C.ar    
   7 C7             0.7223     2.0043     0.4105 C.ar    
   8 C8             1.5488    -2.1342     0.1192 C.3     
   9 C9             1.2681    -2.8515     1.4224 C.2     
  10 C10            0.7282    -2.7470    -1.0175 C.3     
  11 C11           -0.7340    -2.4590    -0.7932 C.2     
  12 N12           -1.6584    -2.9786    -1.6250 N.am    
  13 O13           -1.0788    -1.7597     0.1357 O.2     
  14 C14           -3.0761    -2.6180    -1.4876 C.3     
  15 C15           -3.9028    -3.9026    -1.3738 C.3     
  16 C16           -3.5977    -4.8085    -2.5690 C.3     
  17 C17           -2.1146    -5.1861    -2.5595 C.3     
  18 C18           -1.2669    -3.9116    -2.6903 C.3     
  19 N19           -4.4135    -6.0269    -2.4804 N.3     
  20 C20           -4.2354    -6.8677    -3.6725 C.3     
  21 C21           -5.0377    -8.1604    -3.5062 C.3     
  22 N22           -6.4557    -7.8313    -3.3044 N.3     
  23 C23           -6.6338    -6.9905    -2.1124 C.3     
  24 C24           -5.8314    -5.6978    -2.2787 C.3     
  25 H25           -6.8434    -7.3856    -4.1225 H       
  26 O26            0.1965    -2.9302     1.9851 O.2     
  27 N27            2.4289    -3.3853     1.8383 N.am    
  28 C28            3.0261    -2.3552    -0.1117 C.ar    
  29 C29            3.4804    -3.1125     0.9607 C.ar    
  30 C30            3.8858    -1.9615    -1.1123 C.ar    
  31 C31            5.2229    -2.3215    -1.0559 C.ar    
  32 C32            5.6876    -3.0768     0.0088 C.ar    
  33 C33            4.8253    -3.4716     1.0124 C.ar    
  34 Cl34           7.3622    -3.5288     0.0814 Cl      
  35 C35            2.3021    -5.9530     2.8208 C.ar    
  36 C36            3.3546    -6.7600     2.4297 C.ar    
  37 C37            1.0220    -6.4702     2.8953 C.ar    
  38 C38            0.7915    -7.7950     2.5790 C.ar    
  39 C39            1.8458    -8.6068     2.1864 C.ar    
  40 C40            3.1292    -8.0854     2.1119 C.ar    
  41 O41            1.6217    -9.9105     1.8751 O.3     
  42 H42            4.3536    -6.3537     2.3722 H       
  43 C43            2.7541   -10.6868     1.4789 C.3     
  44 S44            2.5940    -4.2647     3.2318 S.o2    
  45 O45            3.9622    -4.1731     3.6044 O.2     
  46 O46            1.5281    -3.8693     4.0844 O.2     
  47 O47            1.6760    -0.3399    -2.0621 O.3     
  48 C48            2.1647    -0.1709    -4.4229 C.3     
  49 C49            1.6308     0.5469    -3.1817 C.3     
  50 H50            0.8231    -0.7532     2.3535 H       
  51 H51            0.3433     1.6826     2.4918 H       
  52 H52            0.5156     3.0630     0.4636 H       
  53 H53            1.0424    -2.3137    -1.9670 H       
  54 H54            0.8869    -3.8251    -1.0399 H       
  55 H55           -3.2142    -2.0139    -0.5909 H       
  56 H56           -3.3962    -2.0539    -2.3636 H       
  57 H57           -3.6453    -4.4203    -0.4498 H       
  58 H58           -4.9639    -3.6531    -1.3680 H       
  59 H59           -3.8322    -4.2811    -3.4936 H       
  60 H60           -1.8739    -5.6917    -1.6243 H       
  61 H61           -1.9029    -5.8501    -3.3976 H       
  62 H62           -1.4407    -3.4556    -3.6649 H       
  63 H63           -0.2114    -4.1625    -2.5850 H       
  64 H64           -4.5894    -6.3307    -4.5525 H       
  65 H65           -3.1792    -7.1083    -3.7933 H       
  66 H66           -4.9304    -8.7728    -4.4015 H       
  67 H67           -4.6656    -8.7108    -2.6420 H       
  68 H68           -7.6900    -6.7499    -1.9915 H       
  69 H69           -6.2798    -7.5276    -1.2324 H       
  70 H70           -5.9388    -5.0854    -1.3834 H       
  71 H71           -6.2036    -5.1475    -3.1428 H       
  72 H72            3.5186    -1.3732    -1.9402 H       
  73 H73            5.1944    -4.0602     1.8392 H       
  74 H74            0.2017    -5.8379     3.2014 H       
  75 H75           -0.2085    -8.1986     2.6378 H       
  76 H76            3.9517    -8.7154     1.8068 H       
  77 H77            3.2032   -10.2463     0.5888 H       
  78 H78            3.4861   -10.7001     2.2865 H       
  79 H79            2.4369   -11.7063     1.2592 H       
  80 H80            2.2121     0.5304    -5.2559 H       
  81 H81            3.1624    -0.5587    -4.2172 H       
  82 H82            1.5000    -0.9957    -4.6796 H       
  83 H83            0.6010     0.8585    -3.3570 H       
  84 H84            2.2455     1.4233    -2.9762 H       
@<TRIPOS>BOND
   1    1   31 1
   2    2    3 ar
   3    2    7 ar
   4    3    4 ar
   5    3   47 1
   6    4    5 ar
   7    4    8 1
   8    5    6 ar
   9    5   50 1
  10    6    7 ar
  11    6   51 1
  12    7   52 1
  13    8    9 1
  14    8   10 1
  15    8   28 1
  16    9   26 2
  17    9   27 am
  18   10   11 1
  19   10   53 1
  20   10   54 1
  21   11   12 am
  22   11   13 2
  23   12   14 1
  24   12   18 1
  25   14   15 1
  26   14   55 1
  27   14   56 1
  28   15   16 1
  29   15   57 1
  30   15   58 1
  31   16   17 1
  32   16   19 1
  33   16   59 1
  34   17   18 1
  35   17   60 1
  36   17   61 1
  37   18   62 1
  38   18   63 1
  39   19   20 1
  40   19   24 1
  41   20   21 1
  42   20   64 1
  43   20   65 1
  44   21   22 1
  45   21   66 1
  46   21   67 1
  47   22   23 1
  48   22   25 1
  49   23   24 1
  50   23   68 1
  51   23   69 1
  52   24   70 1
  53   24   71 1
  54   27   44 am
  55   27   29 1
  56   28   29 ar
  57   28   30 ar
  58   29   33 ar
  59   30   31 ar
  60   30   72 1
  61   31   32 ar
  62   32   33 ar
  63   32   34 1
  64   33   73 1
  65   35   36 ar
  66   35   37 ar
  67   35   44 1
  68   36   42 1
  69   36   40 ar
  70   37   38 ar
  71   37   74 1
  72   38   39 ar
  73   38   75 1
  74   39   40 ar
  75   39   41 1
  76   40   76 1
  77   41   43 1
  78   43   77 1
  79   43   78 1
  80   43   79 1
  81   44   45 2
  82   44   46 2
  83   47   49 1
  84   48   49 1
  85   48   80 1
  86   48   81 1
  87   48   82 1
  88   49   83 1
  89   49   84 1

#	End of record

