#	Name: ASD01915084
#	Creating user name:	WinNT
#	Creation time:	15. 06. 2019 20:04

#	Modifying user name:	WinNT
#	Modification time:	15. 06. 2019 20:04

#	Program:	/corina/corina34_cracker 3.40 0067  02.08.2006

@<TRIPOS>MOLECULE
ASD01915084
  43   45    0    0    0
SMALL
NO_CHARGES


@<TRIPOS>ATOM
   1 C1             0.2224    -0.3706    -0.2718 C.ar    
   2 C2             1.1539     0.0260    -1.2152 C.ar    
   3 C3             2.4685    -0.3879    -1.1064 C.ar    
   4 C4             2.8530    -1.2017    -0.0495 C.ar    
   5 C5             1.9152    -1.5977     0.8954 C.ar    
   6 C6             0.6034    -1.1813     0.7817 C.ar    
   7 N7             4.1828    -1.6228     0.0633 N.am    
   8 C8             5.1865    -0.7648    -0.2067 C.2     
   9 H9             4.3822    -2.5321     0.3358 H       
  10 O10            6.4637    -1.1349     0.0046 O.3     
  11 O11            4.9388     0.3428    -0.6408 O.2     
  12 N12            7.3244    -0.3013    -0.2141 N.2     
  13 C13            8.5606    -0.6235    -0.1403 C.2     
  14 C14            9.6445     0.4222    -0.2818 C.3     
  15 C15            8.9753    -2.0587     0.0970 C.3     
  16 C16           10.0019    -2.4520    -0.9704 C.3     
  17 C17           11.1585    -1.4511    -0.9562 C.3     
  18 C18           10.6481    -0.0562    -1.3362 C.3     
  19 C19            9.0243     1.7482    -0.7268 C.3     
  20 C20            8.1863     2.3113     0.3919 C.2     
  21 C21            8.6553     3.0074     1.4287 C.2     
  22 S22            6.4394     2.1578     0.5264 S.3     
  23 C23            6.4453     3.0678     2.0316 C.2     
  24 C24            7.6946     3.4237     2.3342 C.2     
  25 Cl25           0.6712     1.0433    -2.5365 Cl      
  26 H26           -0.8031    -0.0426    -0.3560 H       
  27 H27            3.1954    -0.0786    -1.8429 H       
  28 H28            2.2116    -2.2311     1.7184 H       
  29 H29           -0.1257    -1.4889     1.5166 H       
  30 H30           10.1501     0.5571     0.6744 H       
  31 H31            9.4223    -2.1518     1.0868 H       
  32 H32            8.1034    -2.7087     0.0235 H       
  33 H33           10.3829    -3.4509    -0.7578 H       
  34 H34            9.5271    -2.4450    -1.9515 H       
  35 H35           11.5927    -1.4134     0.0428 H       
  36 H36           11.9198    -1.7672    -1.6693 H       
  37 H37           10.1559    -0.1013    -2.3077 H       
  38 H38           11.4877     0.6371    -1.3857 H       
  39 H39            9.8165     2.4535    -0.9780 H       
  40 H40            8.3966     1.5801    -1.6019 H       
  41 H41            9.7050     3.2291     1.5524 H       
  42 H42            5.5706     3.3051     2.6190 H       
  43 H43            7.9385     3.9920     3.2196 H       
@<TRIPOS>BOND
   1    1    2 ar
   2    1    6 ar
   3    1   26 1
   4    2    3 ar
   5    2   25 1
   6    3    4 ar
   7    3   27 1
   8    4    5 ar
   9    4    7 1
  10    5    6 ar
  11    5   28 1
  12    6   29 1
  13    7    8 am
  14    7    9 1
  15    8   10 1
  16    8   11 2
  17   10   12 1
  18   12   13 2
  19   13   14 1
  20   13   15 1
  21   14   19 1
  22   14   18 1
  23   14   30 1
  24   15   16 1
  25   15   31 1
  26   15   32 1
  27   16   17 1
  28   16   33 1
  29   16   34 1
  30   17   18 1
  31   17   35 1
  32   17   36 1
  33   18   37 1
  34   18   38 1
  35   19   20 1
  36   19   39 1
  37   19   40 1
  38   20   21 2
  39   20   22 1
  40   21   24 1
  41   21   41 1
  42   22   23 1
  43   23   24 2
  44   23   42 1
  45   24   43 1

#	End of record

