#	Name: ASD04500010
#	Creating user name:	WinNT
#	Creation time:	15. 06. 2019 20:49

#	Modifying user name:	WinNT
#	Modification time:	15. 06. 2019 20:49

#	Program:	/corina/corina34_cracker 3.40 0067  02.08.2006

@<TRIPOS>MOLECULE
ASD04500010
  87   93    0    0    0
SMALL
NO_CHARGES


@<TRIPOS>ATOM
   1 C1             1.4415    -0.4034     0.8012 C.ar    
   2 C2             1.7499    -1.7342     0.8244 C.ar    
   3 C3             3.0644    -2.1610     0.9617 C.ar    
   4 C4             4.0895    -1.2475     1.0779 C.ar    
   5 C5             3.7977     0.1150     1.0563 C.ar    
   6 C6             2.4593     0.5479     0.9165 C.ar    
   7 N7             2.1948     1.8696     0.8974 N.2     
   8 C8             4.8491     1.1358     1.1756 C.2     
   9 N9             4.4658     2.4335     1.1433 N.am    
  10 C10            3.1452     2.7620     1.0047 C.2     
  11 O11            6.0197     0.8256     1.2991 O.2     
  12 C12            2.7746     4.1927     0.9751 C.ar    
  13 C13            1.6918     6.0439    -0.1132 C.ar    
  14 C14            2.0358     4.7025    -0.0926 C.ar    
  15 C15            3.1578     5.0374     2.0187 C.ar    
  16 C16            2.8098     6.3721     1.9881 C.ar    
  17 C17            2.0815     6.8770     0.9265 C.ar    
  18 C18            5.4714     3.4927     1.2584 C.3     
  19 N19            8.6623     6.2922    -1.2761 N.pl3   
  20 N20            8.4819     7.4482    -0.7396 N.2     
  21 N21            9.5663     8.1379    -0.7965 N.2     
  22 C22           10.5123     7.4083    -1.3983 C.2     
  23 C23            9.9419     6.2212    -1.7103 C.2     
  24 C24           11.9336     7.8262    -1.6749 C.3     
  25 N25           11.9864     8.5746    -2.9332 N.am    
  26 C26           11.7110     9.9145    -2.9391 C.2     
  27 N27           11.7392    10.6443    -4.0242 N.2     
  28 C28           12.0466    10.1153    -5.2255 C.ar    
  29 C29           12.3462     8.7365    -5.3154 C.ar    
  30 C30           12.3128     7.9371    -4.0816 C.2     
  31 C31           12.0761    10.8986    -6.3827 C.ar    
  32 C32           12.3952    10.3197    -7.5901 C.ar    
  33 C33           12.6889     8.9651    -7.6742 C.ar    
  34 C34           12.6703     8.1723    -6.5471 C.ar    
  35 C35           11.3649    10.5683    -1.6592 C.ar    
  36 C36           12.2276    10.4692    -0.5673 C.ar    
  37 C37           11.8997    11.0838     0.6301 C.ar    
  38 C38           10.7151    11.7965     0.7444 C.ar    
  39 C39            9.8542    11.8976    -0.3391 C.ar    
  40 C40           10.1771    11.2911    -1.5415 C.ar    
  41 O41           12.5656     6.7465    -4.0933 O.2     
  42 C42            6.0390     3.8097    -0.1266 C.3     
  43 C43            7.0891     4.9159    -0.0063 C.3     
  44 C44            7.6568     5.2330    -1.3913 C.3     
  45 O45            8.6947    12.5972    -0.2217 O.3     
  46 C46            8.7860    13.9366    -0.2438 C.2     
  47 C47            7.5355    14.7774    -0.2311 C.3     
  48 O48            9.8709    14.4677    -0.2739 O.2     
  49 S49           -0.5346     6.4809    -0.9489 S.o2    
  50 O50           -0.6059     7.2797     0.2241 O.2     
  51 O51           -0.6514     5.0716    -0.8092 O.2     
  52 O52           -0.9211     7.0670    -2.1843 O.2     
  53 O53            0.9725     6.5447    -1.1518 O.3     
  54 S54           13.7773    12.0988     1.7661 S.o2    
  55 O55           12.8796    13.1969     1.8526 O.2     
  56 O56           14.4141    11.8493     0.5205 O.2     
  57 O57           14.4339    11.6738     2.9524 O.2     
  58 O58           12.7394    10.9879     1.6944 O.3     
  59 H59            0.4149    -0.0872     0.6896 H       
  60 H60            0.9598    -2.4651     0.7349 H       
  61 H61            3.2851    -3.2181     0.9779 H       
  62 H62            5.1100    -1.5844     1.1852 H       
  63 H63            1.7332     4.0533    -0.9009 H       
  64 H64            3.7261     4.6461     2.8496 H       
  65 H65            3.1068     7.0245     2.7959 H       
  66 H66            1.8122     7.9228     0.9078 H       
  67 H67            5.0100     4.3878     1.6757 H       
  68 H68            6.2764     3.1597     1.9135 H       
  69 H69           10.4134     5.3852    -2.2055 H       
  70 H70           12.2916     8.4572    -0.8615 H       
  71 H71           12.5642     6.9405    -1.7522 H       
  72 H72           11.8492    11.9532    -6.3298 H       
  73 H73           12.4171    10.9266    -8.4833 H       
  74 H74           12.9366     8.5295    -8.6309 H       
  75 H75           12.9071     7.1210    -6.6180 H       
  76 H76           13.1497     9.9139    -0.6553 H       
  77 H77           10.4621    12.2739     1.6796 H       
  78 H78            9.5065    11.3703    -2.3843 H       
  79 H79            6.5003     2.9146    -0.5438 H       
  80 H80            5.2339     4.1427    -0.7817 H       
  81 H81            6.6278     5.8110     0.4109 H       
  82 H82            7.8942     4.5830     0.6488 H       
  83 H83            6.8517     5.5660    -2.0464 H       
  84 H84            8.1181     4.3379    -1.8085 H       
  85 H85            6.6609    14.1275    -0.2035 H       
  86 H86            7.5386    15.4199     0.6494 H       
  87 H87            7.5024    15.3930    -1.1300 H       
@<TRIPOS>BOND
   1    1    2 ar
   2    1    6 ar
   3    1   59 1
   4    2    3 ar
   5    2   60 1
   6    3    4 ar
   7    3   61 1
   8    4    5 ar
   9    4   62 1
  10    5    6 ar
  11    5    8 1
  12    6    7 1
  13    7   10 2
  14    8    9 am
  15    8   11 2
  16    9   10 1
  17    9   18 1
  18   10   12 1
  19   12   15 ar
  20   12   14 ar
  21   13   14 ar
  22   13   17 ar
  23   13   53 1
  24   14   63 1
  25   15   16 ar
  26   15   64 1
  27   16   17 ar
  28   16   65 1
  29   17   66 1
  30   18   42 1
  31   18   67 1
  32   18   68 1
  33   19   20 1
  34   19   23 1
  35   19   44 1
  36   20   21 2
  37   21   22 1
  38   22   23 2
  39   22   24 1
  40   23   69 1
  41   24   25 1
  42   24   70 1
  43   24   71 1
  44   25   26 1
  45   25   30 am
  46   26   27 2
  47   26   35 1
  48   27   28 1
  49   28   31 ar
  50   28   29 ar
  51   29   30 1
  52   29   34 ar
  53   30   41 2
  54   31   32 ar
  55   31   72 1
  56   32   33 ar
  57   32   73 1
  58   33   34 ar
  59   33   74 1
  60   34   75 1
  61   35   36 ar
  62   35   40 ar
  63   36   37 ar
  64   36   76 1
  65   37   38 ar
  66   37   58 1
  67   38   39 ar
  68   38   77 1
  69   39   40 ar
  70   39   45 1
  71   40   78 1
  72   42   43 1
  73   42   79 1
  74   42   80 1
  75   43   44 1
  76   43   81 1
  77   43   82 1
  78   44   83 1
  79   44   84 1
  80   45   46 1
  81   46   47 1
  82   46   48 2
  83   47   85 1
  84   47   86 1
  85   47   87 1
  86   49   50 2
  87   49   51 2
  88   49   52 2
  89   49   53 1
  90   54   55 2
  91   54   56 2
  92   54   57 2
  93   54   58 1

#	End of record

