#	Name: ASD01900065
#	Creating user name:	WinNT
#	Creation time:	15. 06. 2019 19:51

#	Modifying user name:	WinNT
#	Modification time:	15. 06. 2019 19:51

#	Program:	/corina/corina34_cracker 3.40 0067  02.08.2006

@<TRIPOS>MOLECULE
ASD01900065
  35   37    0    0    0
SMALL
NO_CHARGES


@<TRIPOS>ATOM
   1 C1            -0.0179     1.4681     0.0101 C.2     
   2 C2             0.0021    -0.0041     0.0020 C.2     
   3 N3            -1.1558    -0.6938     0.0094 N.am    
   4 O4             1.0637    -0.5979    -0.0113 O.2     
   5 C5            -1.1367    -2.1004     0.0016 C.2     
   6 C6            -2.2231    -2.9149     0.0076 C.2     
   7 N7            -1.7741    -4.1968    -0.0035 N.am    
   8 N8            -0.3739    -4.1623    -0.0167 N.2     
   9 C9             0.0078    -2.9110    -0.0198 C.2     
  10 S10           -2.7155    -5.5592    -0.0010 S.o2    
  11 O11           -1.9100    -6.6025     0.5299 O.2     
  12 O12           -3.9662    -5.1817     0.5581 O.2     
  13 C13           -3.0290    -5.9796    -1.6832 C.ar    
  14 C14           -2.1673    -6.8249    -2.3564 C.ar    
  15 C15           -2.4133    -7.1547    -3.6763 C.ar    
  16 C16           -3.5212    -6.6395    -4.3224 C.ar    
  17 C17           -4.3837    -5.7947    -3.6487 C.ar    
  18 C18           -4.1401    -5.4684    -2.3279 C.ar    
  19 C19           -1.4732    -8.0756    -4.4106 C.3     
  20 N20            1.0341     2.2415     0.0042 N.2     
  21 C21            0.7976     3.5271     0.0134 C.2     
  22 C22           -0.4965     3.8826     0.0277 C.2     
  23 S23           -1.4645     2.4722     0.0217 S.3     
  24 H24           -2.0023    -0.2203     0.0200 H       
  25 H25           -3.2563    -2.6007     0.0197 H       
  26 H26            1.0298    -2.5618    -0.0292 H       
  27 H27           -1.3017    -7.2275    -1.8515 H       
  28 H28           -3.7130    -6.8966    -5.3537 H       
  29 H29           -5.2492    -5.3919    -4.1537 H       
  30 H30           -4.8138    -4.8085    -1.8016 H       
  31 H31           -1.8009    -9.1072    -4.2821 H       
  32 H32           -1.4728    -7.8240    -5.4712 H       
  33 H33           -0.4661    -7.9616    -4.0098 H       
  34 H34            1.5935     4.2571     0.0101 H       
  35 H35           -0.8674     4.8969     0.0367 H       
@<TRIPOS>BOND
   1    1    2 1
   2    1   20 2
   3    1   23 1
   4    2    3 am
   5    2    4 2
   6    3    5 1
   7    3   24 1
   8    5    6 2
   9    5    9 1
  10    6    7 1
  11    6   25 1
  12    7    8 1
  13    7   10 am
  14    8    9 2
  15    9   26 1
  16   10   11 2
  17   10   12 2
  18   10   13 1
  19   13   14 ar
  20   13   18 ar
  21   14   15 ar
  22   14   27 1
  23   15   16 ar
  24   15   19 1
  25   16   17 ar
  26   16   28 1
  27   17   18 ar
  28   17   29 1
  29   18   30 1
  30   19   31 1
  31   19   32 1
  32   19   33 1
  33   20   21 1
  34   21   22 2
  35   21   34 1
  36   22   23 1
  37   22   35 1

#	End of record

