#	Name: ASD03240391
#	Creating user name:	WinNT
#	Creation time:	15. 06. 2019 20:34

#	Modifying user name:	WinNT
#	Modification time:	15. 06. 2019 20:34

#	Program:	/corina/corina34_cracker 3.40 0067  02.08.2006

@<TRIPOS>MOLECULE
ASD03240391
  50   53    0    0    0
SMALL
NO_CHARGES


@<TRIPOS>ATOM
   1 Cl1           -0.0033    -0.0041     0.0748 Cl      
   2 C2            -0.0253     1.7317     0.0632 C.ar    
   3 C3             1.1655     2.4361    -0.0051 C.ar    
   4 C4             1.1547     3.8148    -0.0142 C.ar    
   5 C5            -0.0604     4.5012     0.0452 C.ar    
   6 C6            -1.2577     3.7851     0.1135 C.ar    
   7 C7            -1.2339     2.4065     0.1166 C.ar    
   8 C8            -0.0790     5.9775     0.0363 C.2     
   9 O9             0.9630     6.5988     0.1075 O.2     
  10 N10           -1.2517     6.6361    -0.0507 N.am    
  11 N11           -2.4850     6.0239    -0.2514 N.2     
  12 C12           -3.4544     6.8519    -0.2996 C.2     
  13 C13           -2.8694     8.2362    -0.1128 C.3     
  14 C14           -1.3843     7.9753     0.0513 C.2     
  15 O15           -0.5064     8.7926     0.2281 O.2     
  16 N16           -3.1245     9.0672    -1.2921 N.2     
  17 N17           -2.8015    10.2644    -1.2885 N.2     
  18 C18           -3.0401    11.0417    -2.3916 C.ar    
  19 C19           -2.6777    12.3901    -2.3910 C.ar    
  20 C20           -2.9203    13.1667    -3.5049 C.ar    
  21 C21           -3.5218    12.6124    -4.6210 C.ar    
  22 C22           -3.8834    11.2769    -4.6283 C.ar    
  23 C23           -3.6414    10.4874    -3.5233 C.ar    
  24 S24           -3.8290    13.6120    -6.0391 S.o2    
  25 O25           -4.8898    12.9869    -6.7485 O.2     
  26 O26           -3.8874    14.9550    -5.5784 O.2     
  27 N27           -2.4920    13.5086    -7.0108 N.am    
  28 C28           -2.1498    12.2993    -7.5906 C.ar    
  29 N29           -1.2761    12.2839    -8.5865 N.ar    
  30 C30           -0.9274    11.1454    -9.1625 C.ar    
  31 C31           -1.4878     9.9604    -8.7121 C.ar    
  32 C32           -2.3983    10.0126    -7.6684 C.ar    
  33 N33           -2.6995    11.1841    -7.1329 N.ar    
  34 C34           -4.9090     6.5155    -0.5045 C.3     
  35 H35            2.1044     1.9043    -0.0510 H       
  36 H36            2.0838     4.3629    -0.0668 H       
  37 H37           -2.2004     4.3101     0.1597 H       
  38 H38           -2.1590     1.8517     0.1694 H       
  39 H39           -3.2742     8.7060     0.7836 H       
  40 H40           -2.2089    12.8241    -1.5203 H       
  41 H41           -2.6405    14.2098    -3.5058 H       
  42 H42           -4.3525    10.8505    -5.5028 H       
  43 H43           -3.9238     9.4450    -3.5304 H       
  44 H44           -1.9487    14.2955    -7.1735 H       
  45 H45           -0.2150    11.1392    -9.9742 H       
  46 H46           -1.2210     9.0168    -9.1648 H       
  47 H47           -2.8533     9.1075    -7.2942 H       
  48 H48           -5.0211     5.4362    -0.6084 H       
  49 H49           -5.4859     6.8598     0.3537 H       
  50 H50           -5.2719     7.0070    -1.4072 H       
@<TRIPOS>BOND
   1    1    2 1
   2    2    3 ar
   3    2    7 ar
   4    3    4 ar
   5    3   35 1
   6    4    5 ar
   7    4   36 1
   8    5    6 ar
   9    5    8 1
  10    6    7 ar
  11    6   37 1
  12    7   38 1
  13    8    9 2
  14    8   10 am
  15   10   11 1
  16   10   14 am
  17   11   12 2
  18   12   13 1
  19   12   34 1
  20   13   14 1
  21   13   16 1
  22   13   39 1
  23   14   15 2
  24   16   17 2
  25   17   18 1
  26   18   19 ar
  27   18   23 ar
  28   19   20 ar
  29   19   40 1
  30   20   21 ar
  31   20   41 1
  32   21   22 ar
  33   21   24 1
  34   22   23 ar
  35   22   42 1
  36   23   43 1
  37   24   25 2
  38   24   26 2
  39   24   27 am
  40   27   28 1
  41   27   44 1
  42   28   29 ar
  43   28   33 ar
  44   29   30 ar
  45   30   31 ar
  46   30   45 1
  47   31   32 ar
  48   31   46 1
  49   32   33 ar
  50   32   47 1
  51   34   48 1
  52   34   49 1
  53   34   50 1

#	End of record

