#	Name: ASD07301351
#	Creating user name:	WinNT
#	Creation time:	15. 06. 2019 21:11

#	Modifying user name:	WinNT
#	Modification time:	15. 06. 2019 21:11

#	Program:	/corina/corina34_cracker 3.40 0067  02.08.2006

@<TRIPOS>MOLECULE
ASD07301351
  30   31    0    0    0
SMALL
NO_CHARGES


@<TRIPOS>ATOM
   1 C1            -0.0169     1.4663     0.0591 C.2     
   2 C2             0.0021    -0.0041     0.0009 C.2     
   3 C3             1.2721    -0.6341    -0.0641 C.2     
   4 C4             2.3709     0.1572    -0.0679 C.2     
   5 N5             2.2556     1.5071    -0.0109 N.pl3   
   6 N6             1.1289     2.1154     0.0482 N.2     
   7 C7            -1.2955     2.1995     0.1223 C.2     
   8 O8            -2.3461     1.5894     0.1267 O.2     
   9 O9            -1.2982     3.5460     0.1752 O.3     
  10 C10            3.4253     2.2744    -0.0171 C.ar    
  11 C11            3.3495     3.6584    -0.1132 C.ar    
  12 C12            4.5059     4.4129    -0.1185 C.ar    
  13 C13            5.7388     3.7924    -0.0282 C.ar    
  14 C14            5.8178     2.4152     0.0672 C.ar    
  15 C15            4.6647     1.6549     0.0788 C.ar    
  16 C16            4.4247     5.9140    -0.2233 C.3     
  17 F17            4.3476     6.4675     1.0593 F       
  18 F18            5.5653     6.3986    -0.8724 F       
  19 F19            3.2859     6.2696    -0.9539 F       
  20 O20           -1.0312    -0.6546     0.0086 O.2     
  21 C21           -2.5927     4.2008     0.2358 C.3     
  22 H22            1.3594    -1.7097    -0.1086 H       
  23 H23            3.3516    -0.2926    -0.1167 H       
  24 H24            2.3872     4.1435    -0.1841 H       
  25 H25            6.6417     4.3848    -0.0325 H       
  26 H26            6.7820     1.9338     0.1372 H       
  27 H27            4.7270     0.5796     0.1578 H       
  28 H28           -3.1729     3.9414    -0.6497 H       
  29 H29           -3.1250     3.8716     1.1282 H       
  30 H30           -2.4521     5.2810     0.2744 H       
@<TRIPOS>BOND
   1    1    2 1
   2    1    6 2
   3    1    7 1
   4    2    3 1
   5    2   20 2
   6    3    4 2
   7    3   22 1
   8    4    5 1
   9    4   23 1
  10    5    6 1
  11    5   10 1
  12    7    8 2
  13    7    9 1
  14    9   21 1
  15   10   11 ar
  16   10   15 ar
  17   11   12 ar
  18   11   24 1
  19   12   13 ar
  20   12   16 1
  21   13   14 ar
  22   13   25 1
  23   14   15 ar
  24   14   26 1
  25   15   27 1
  26   16   17 1
  27   16   18 1
  28   16   19 1
  29   21   28 1
  30   21   29 1
  31   21   30 1

#	End of record

