#	Name: ASD07930586
#	Creating user name:	WinNT
#	Creation time:	15. 06. 2019 21:12

#	Modifying user name:	WinNT
#	Modification time:	15. 06. 2019 21:12

#	Program:	/corina/corina34_cracker 3.40 0067  02.08.2006

@<TRIPOS>MOLECULE
ASD07930586
  49   51    0    0    0
SMALL
NO_CHARGES


@<TRIPOS>ATOM
   1 C1             1.3697     0.7536    -1.5459 C.3     
   2 N2             2.3132    -2.0764    -1.4377 N.2     
   3 N3             0.0352    -2.5812    -1.3053 N.pl3   
   4 C4            -0.8997    -2.7421    -0.1868 C.3     
   5 C5            -1.5449    -1.3865     0.1324 C.3     
   6 S6            -0.2174    -0.1883     0.4736 S.o2    
   7 N7             0.8031    -0.3908    -0.8280 N.am    
   8 C8             1.0893    -1.6971    -1.1987 C.2     
   9 C9            -0.1433    -3.2500     1.0423 C.3     
  10 C10           -1.9707    -3.7327    -0.5647 C.ar    
  11 C11           -1.6887    -4.7463    -1.4619 C.ar    
  12 C12           -2.6775    -5.6603    -1.8103 C.ar    
  13 C13           -3.9454    -5.5528    -1.2565 C.ar    
  14 C14           -4.2234    -4.5372    -0.3591 C.ar    
  15 C15           -3.2347    -3.6305    -0.0089 C.ar    
  16 O16           -0.6961     1.1439     0.3487 O.2     
  17 O17            0.5517    -0.5941     1.5974 O.2     
  18 F18           -3.5081    -2.6394     0.8676 F       
  19 N19           -2.3941    -6.6874    -2.7192 N.am    
  20 C20           -3.3898    -7.2500    -3.4323 C.2     
  21 O21           -4.5174    -6.8014    -3.3606 O.2     
  22 C22           -3.1107    -8.4131    -4.3021 C.ar    
  23 N23           -1.8763    -8.8977    -4.3754 N.ar    
  24 C24           -3.8744   -10.0810    -5.8422 C.ar    
  25 C25           -4.1476    -8.9933    -5.0325 C.ar    
  26 C26           -1.5838    -9.9293    -5.1346 C.ar    
  27 C27           -2.5667   -10.5561    -5.8957 C.ar    
  28 O28           -2.2549   -11.6214    -6.6767 O.3     
  29 C29           -0.8924   -12.0521    -6.6726 C.3     
  30 F30           -0.4538    -4.8486    -2.0001 F       
  31 F31           -5.4575    -4.4321     0.1804 F       
  32 F32           -0.0722   -11.0088    -7.1151 F       
  33 F33           -0.5226   -12.4172    -5.3736 F       
  34 H34            2.3188     1.0350    -1.0897 H       
  35 H35            1.5340     0.4831    -2.5889 H       
  36 H36            0.6779     1.5943    -1.4933 H       
  37 H37            3.0421    -1.4415    -1.3576 H       
  38 H38           -0.0849    -3.0983    -2.1171 H       
  39 H39           -2.1336    -1.0496    -0.7209 H       
  40 H40           -2.1873    -1.4823     1.0078 H       
  41 H41            0.6915    -2.5828     1.2566 H       
  42 H42           -0.8171    -3.2755     1.8987 H       
  43 H43            0.2345    -4.2537     0.8473 H       
  44 H44           -4.7146    -6.2613    -1.5260 H       
  45 H45           -1.4811    -6.9939    -2.8356 H       
  46 H46           -4.6572   -10.5510    -6.4190 H       
  47 H47           -5.1508    -8.5988    -4.9665 H       
  48 H48           -0.5683   -10.2953    -5.1689 H       
  49 H49           -0.7802   -12.9092    -7.3367 H       
@<TRIPOS>BOND
   1    1    7 1
   2    1   34 1
   3    1   35 1
   4    1   36 1
   5    2    8 2
   6    2   37 1
   7    3    4 1
   8    3    8 1
   9    3   38 1
  10    4    5 1
  11    4    9 1
  12    4   10 1
  13    5    6 1
  14    5   39 1
  15    5   40 1
  16    6    7 am
  17    6   16 2
  18    6   17 2
  19    7    8 1
  20    9   41 1
  21    9   42 1
  22    9   43 1
  23   10   11 ar
  24   10   15 ar
  25   11   12 ar
  26   11   30 1
  27   12   13 ar
  28   12   19 1
  29   13   14 ar
  30   13   44 1
  31   14   15 ar
  32   14   31 1
  33   15   18 1
  34   19   20 am
  35   19   45 1
  36   20   21 2
  37   20   22 1
  38   22   23 ar
  39   22   25 ar
  40   23   26 ar
  41   24   25 ar
  42   24   27 ar
  43   24   46 1
  44   25   47 1
  45   26   27 ar
  46   26   48 1
  47   27   28 1
  48   28   29 1
  49   29   32 1
  50   29   33 1
  51   29   49 1

#	End of record

