#	Name: ASD05313084
#	Creating user name:	WinNT
#	Creation time:	15. 06. 2019 20:58

#	Modifying user name:	WinNT
#	Modification time:	15. 06. 2019 20:58

#	Program:	/corina/corina34_cracker 3.40 0067  02.08.2006

@<TRIPOS>MOLECULE
ASD05313084
  38   41    0    0    0
SMALL
NO_CHARGES


@<TRIPOS>ATOM
   1 C1            -0.0022     1.5187     0.0012 C.2     
   2 C2             0.0031     0.0087    -0.0123 C.3     
   3 N3             1.1235     2.2752     0.0105 N.pl3   
   4 N4             1.3911    -0.4145    -0.2782 N.am    
   5 C5             2.4759     0.2855     0.4264 C.3     
   6 C6             2.4904     1.7571    -0.0038 C.3     
   7 N7            -0.6110     3.5465     0.0283 N.2     
   8 N8            -1.0213     2.3248     0.0117 N.2     
   9 C9             0.7063     3.5713     0.0304 C.2     
  10 C10            1.5662     4.7747     0.0531 C.ar    
  11 C11            0.9829     6.0417     0.0720 C.ar    
  12 C12            1.8007     7.1578     0.0936 C.ar    
  13 C13            3.1762     6.9716     0.0957 C.ar    
  14 C14            3.6872     5.6867     0.0763 C.ar    
  15 N15            2.8872     4.6404     0.0610 N.ar    
  16 C16            1.6574    -1.4143    -1.1419 C.2     
  17 O17            2.8085    -1.6778    -1.4303 O.2     
  18 C18            0.5496    -2.1907    -1.7384 C.ar    
  19 C19            0.6484    -2.6588    -3.0497 C.ar    
  20 C20           -0.3896    -3.3835    -3.6004 C.ar    
  21 C21           -1.5265    -3.6459    -2.8544 C.ar    
  22 C22           -1.6297    -3.1844    -1.5546 C.ar    
  23 C23           -0.5969    -2.4634    -0.9909 C.ar    
  24 Cl24          -0.2697    -3.9665    -5.2312 Cl      
  25 H25           -0.3234    -0.3732     0.9550 H       
  26 H26           -0.6551    -0.3586    -0.7997 H       
  27 H27            2.3116     0.2224     1.5021 H       
  28 H28            3.4307    -0.1767     0.1755 H       
  29 H29            2.9000     1.8379    -1.0107 H       
  30 H30            3.1054     2.3330     0.6877 H       
  31 H31           -0.0916     6.1501     0.0694 H       
  32 H32            1.3781     8.1516     0.1082 H       
  33 H33            3.8412     7.8224     0.1120 H       
  34 H34            4.7571     5.5390     0.0775 H       
  35 H35            1.5346    -2.4542    -3.6321 H       
  36 H36           -2.3362    -4.2129    -3.2895 H       
  37 H37           -2.5191    -3.3920    -0.9782 H       
  38 H38           -0.6774    -2.1074     0.0255 H       
@<TRIPOS>BOND
   1    1    2 1
   2    1    3 1
   3    1    8 2
   4    2    4 1
   5    2   25 1
   6    2   26 1
   7    3    6 1
   8    3    9 1
   9    4    5 1
  10    4   16 am
  11    5    6 1
  12    5   27 1
  13    5   28 1
  14    6   29 1
  15    6   30 1
  16    7    8 1
  17    7    9 2
  18    9   10 1
  19   10   11 ar
  20   10   15 ar
  21   11   12 ar
  22   11   31 1
  23   12   13 ar
  24   12   32 1
  25   13   14 ar
  26   13   33 1
  27   14   15 ar
  28   14   34 1
  29   16   17 2
  30   16   18 1
  31   18   19 ar
  32   18   23 ar
  33   19   20 ar
  34   19   35 1
  35   20   21 ar
  36   20   24 1
  37   21   22 ar
  38   21   36 1
  39   22   23 ar
  40   22   37 1
  41   23   38 1

#	End of record

