#	Name: ASD01870001
#	Creating user name:	WinNT
#	Creation time:	15. 06. 2019 19:38

#	Modifying user name:	WinNT
#	Modification time:	15. 06. 2019 19:38

#	Program:	/corina/corina34_cracker 3.40 0067  02.08.2006

@<TRIPOS>MOLECULE
ASD01870001
  29   31    0    0    0
SMALL
NO_CHARGES


@<TRIPOS>ATOM
   1 C1            -0.0167     1.3816     0.0096 C.ar    
   2 C2             0.0021    -0.0041     0.0020 C.ar    
   3 C3             1.1980    -0.6958    -0.0203 C.ar    
   4 C4             2.3972    -0.0024    -0.0356 C.ar    
   5 C5             2.3765     1.4052    -0.0131 C.ar    
   6 C6             1.1660     2.0927     0.0022 C.ar    
   7 O7             3.5816    -0.6594    -0.0873 O.3     
   8 C8             4.6643    -0.1477     0.6983 C.3     
   9 C9             4.7770     1.3880     0.7709 C.3     
  10 C10            3.6715     2.1149     0.0082 C.2     
  11 C11            4.3238     0.5855     1.9947 C.3     
  12 O12            3.8430     3.1856    -0.5355 O.2     
  13 C13            5.9436    -0.9423     0.6428 C.2     
  14 O14            6.9536    -0.4964     1.1337 O.2     
  15 O15            5.9611    -2.1455     0.0480 O.3     
  16 C16            7.0529    -4.1959    -0.6830 C.3     
  17 C17            7.2281    -2.8545     0.0319 C.3     
  18 H18           -0.9603     1.9069     0.0170 H       
  19 H19           -0.9296    -0.5501     0.0140 H       
  20 H20            1.1978    -1.7757    -0.0255 H       
  21 H21            1.1527     3.1726     0.0077 H       
  22 H22            5.7636     1.8514     0.7607 H       
  23 H23            3.2724     0.6480     2.2753 H       
  24 H24            5.0260     0.4934     2.8233 H       
  25 H25            8.0040    -4.7281    -0.6951 H       
  26 H26            6.3087    -4.7936    -0.1567 H       
  27 H27            6.7211    -4.0215    -1.7065 H       
  28 H28            7.9723    -2.2568    -0.4945 H       
  29 H29            7.5599    -3.0290     1.0554 H       
@<TRIPOS>BOND
   1    1    2 ar
   2    1    6 ar
   3    1   18 1
   4    2    3 ar
   5    2   19 1
   6    3    4 ar
   7    3   20 1
   8    4    5 ar
   9    4    7 1
  10    5    6 ar
  11    5   10 1
  12    6   21 1
  13    7    8 1
  14    8    9 1
  15    8   11 1
  16    8   13 1
  17    9   10 1
  18    9   11 1
  19    9   22 1
  20   10   12 2
  21   11   23 1
  22   11   24 1
  23   13   14 2
  24   13   15 1
  25   15   17 1
  26   16   17 1
  27   16   25 1
  28   16   26 1
  29   16   27 1
  30   17   28 1
  31   17   29 1

#	End of record

