#	Name: ASD01912508
#	Creating user name:	WinNT
#	Creation time:	15. 06. 2019 19:59

#	Modifying user name:	WinNT
#	Modification time:	15. 06. 2019 19:59

#	Program:	/corina/corina34_cracker 3.40 0067  02.08.2006

@<TRIPOS>MOLECULE
ASD01912508
  45   49    0    0    0
SMALL
NO_CHARGES


@<TRIPOS>ATOM
   1 N1            -0.0157     1.3034     0.0092 N.2     
   2 C2             0.0021    -0.0041     0.0020 C.2     
   3 N3             1.2992    -0.3857    -0.0124 N.2     
   4 C4             1.9928     0.7254    -0.0131 C.2     
   5 O5             1.1176     1.7356     0.0007 O.3     
   6 C6            -1.1802    -0.9013     0.0089 C.ar    
   7 C7            -2.4656    -0.3639     0.0240 C.ar    
   8 C8            -1.0088    -2.2839    -0.0055 C.ar    
   9 C9            -2.1117    -3.1136     0.0005 C.ar    
  10 C10           -3.3855    -2.5748     0.0204 C.ar    
  11 C11           -3.5616    -1.2029     0.0299 C.ar    
  12 C12            3.4951     0.8428    -0.0260 C.3     
  13 C13            4.0472     1.5996    -1.2476 C.3     
  14 N14            4.9677     2.2560    -0.2990 N.am    
  15 C15            4.0327     2.0135     0.8167 C.3     
  16 C16            6.1767     2.8416    -0.4080 C.2     
  17 C17            6.8436     3.4256     0.8107 C.3     
  18 O18            6.7279     2.8987    -1.4868 O.2     
  19 C19            8.2245     4.0426     0.4316 C.3     
  20 C20            8.6778     4.8032     1.7151 C.3     
  21 C21            9.0138     3.6883     2.7318 C.3     
  22 C22            8.7318     2.3591     1.9669 C.3     
  23 C23            7.1795     2.3108     1.8275 C.3     
  24 C24            9.1413     2.7710     0.5088 C.3     
  25 H25           -2.6042     0.7071     0.0315 H       
  26 H26           -0.0147    -2.7056    -0.0217 H       
  27 H27           -1.9800    -4.1855    -0.0106 H       
  28 H28           -4.2459    -3.2277     0.0247 H       
  29 H29           -4.5583    -0.7874     0.0454 H       
  30 H30            3.9971    -0.1055     0.1664 H       
  31 H31            4.5477     0.9579    -1.9727 H       
  32 H32            3.3285     2.2800    -1.7045 H       
  33 H33            3.3097     2.8155     0.9663 H       
  34 H34            4.5215     1.7023     1.7399 H       
  35 H35            6.2034     4.1797     1.2687 H       
  36 H36            8.2524     4.6144    -0.4960 H       
  37 H37            9.5614     5.4066     1.5070 H       
  38 H38            7.8689     5.4294     2.0913 H       
  39 H39           10.0626     3.7436     3.0236 H       
  40 H40            8.3701     3.7665     3.6079 H       
  41 H41            9.2015     1.4648     2.3764 H       
  42 H42            6.7052     2.5162     2.7871 H       
  43 H43            6.8623     1.3403     1.4458 H       
  44 H44            8.8564     2.0165    -0.2244 H       
  45 H45           10.1990     3.0248     0.4375 H       
@<TRIPOS>BOND
   1    1    2 2
   2    1    5 1
   3    2    3 1
   4    2    6 1
   5    3    4 2
   6    4    5 1
   7    4   12 1
   8    6    7 ar
   9    6    8 ar
  10    7   11 ar
  11    7   25 1
  12    8    9 ar
  13    8   26 1
  14    9   10 ar
  15    9   27 1
  16   10   11 ar
  17   10   28 1
  18   11   29 1
  19   12   13 1
  20   12   15 1
  21   12   30 1
  22   13   14 1
  23   13   31 1
  24   13   32 1
  25   14   15 1
  26   14   16 am
  27   15   33 1
  28   15   34 1
  29   16   18 2
  30   16   17 1
  31   17   19 1
  32   17   23 1
  33   17   35 1
  34   19   20 1
  35   19   24 1
  36   19   36 1
  37   20   21 1
  38   20   37 1
  39   20   38 1
  40   21   22 1
  41   21   39 1
  42   21   40 1
  43   22   23 1
  44   22   24 1
  45   22   41 1
  46   23   42 1
  47   23   43 1
  48   24   44 1
  49   24   45 1

#	End of record

