#	Name: ASD01916207
#	Creating user name:	WinNT
#	Creation time:	15. 06. 2019 20:06

#	Modifying user name:	WinNT
#	Modification time:	15. 06. 2019 20:06

#	Program:	/corina/corina34_cracker 3.40 0067  02.08.2006

@<TRIPOS>MOLECULE
ASD01916207
  36   38    0    0    0
SMALL
NO_CHARGES


@<TRIPOS>ATOM
   1 C1            -0.0726     1.5124    -0.4023 C.ar    
   2 C2            -0.1817     0.1352    -0.3843 C.ar    
   3 C3             0.9191    -0.6439    -0.0838 C.ar    
   4 C4             2.1391    -0.0437     0.2007 C.ar    
   5 C5             2.2509     1.3398     0.1826 C.ar    
   6 C6             1.1442     2.1179    -0.1188 C.ar    
   7 O7             1.2502     3.4724    -0.1377 O.3     
   8 C8             0.7291     4.1679     0.9071 C.ar    
   9 C9             0.8180     5.5518     0.9454 C.ar    
  10 N10            0.3144     6.2304     1.9573 N.ar    
  11 C11           -0.2889     5.6302     2.9644 C.ar    
  12 C12           -0.4164     4.2539     2.9971 C.ar    
  13 C13            0.0937     3.5024     1.9511 C.ar    
  14 N14            3.2532    -0.8322     0.5052 N.am    
  15 C15            5.6433    -1.3321     0.3285 C.ar    
  16 C16            6.9168    -0.9337    -0.0807 C.ar    
  17 C17            7.9973    -1.7662     0.1274 C.ar    
  18 C18            7.8211    -2.9938     0.7397 C.ar    
  19 C19            6.5604    -3.3958     1.1485 C.ar    
  20 C20            5.4720    -2.5697     0.9512 C.ar    
  21 Cl21           6.3493    -4.9385     1.9161 Cl      
  22 C22            4.4817    -0.4447     0.1090 C.2     
  23 O23            4.6345     0.6347    -0.4290 O.2     
  24 H24           -0.9338     2.1185    -0.6416 H       
  25 H25           -1.1294    -0.3333    -0.6052 H       
  26 H26            0.8308    -1.7202    -0.0698 H       
  27 H27            3.1982     1.8090     0.4038 H       
  28 H28            1.3052     6.0786     0.1382 H       
  29 H29           -0.6885     6.2217     3.7749 H       
  30 H30           -0.9114     3.7707     3.8264 H       
  31 H31            0.0083     2.4258     1.9503 H       
  32 H32            3.1417    -1.6580     1.0017 H       
  33 H33            7.0561     0.0242    -0.5596 H       
  34 H34            8.9831    -1.4586    -0.1890 H       
  35 H35            8.6702    -3.6418     0.8995 H       
  36 H36            4.4892    -2.8836     1.2705 H       
@<TRIPOS>BOND
   1    1    2 ar
   2    1    6 ar
   3    1   24 1
   4    2    3 ar
   5    2   25 1
   6    3    4 ar
   7    3   26 1
   8    4    5 ar
   9    4   14 1
  10    5    6 ar
  11    5   27 1
  12    6    7 1
  13    7    8 1
  14    8    9 ar
  15    8   13 ar
  16    9   10 ar
  17    9   28 1
  18   10   11 ar
  19   11   12 ar
  20   11   29 1
  21   12   13 ar
  22   12   30 1
  23   13   31 1
  24   14   22 am
  25   14   32 1
  26   15   16 ar
  27   15   22 1
  28   15   20 ar
  29   16   17 ar
  30   16   33 1
  31   17   18 ar
  32   17   34 1
  33   18   19 ar
  34   18   35 1
  35   19   20 ar
  36   19   21 1
  37   20   36 1
  38   22   23 2

#	End of record

