#	Name: ASD01913187
#	Creating user name:	WinNT
#	Creation time:	15. 06. 2019 20:01

#	Modifying user name:	WinNT
#	Modification time:	15. 06. 2019 20:01

#	Program:	/corina/corina34_cracker 3.40 0067  02.08.2006

@<TRIPOS>MOLECULE
ASD01913187
  62   66    0    0    0
SMALL
NO_CHARGES


@<TRIPOS>ATOM
   1 C1             0.1212     1.3391    -0.2791 C.3     
   2 N2             0.0149    -0.1043    -0.0405 N.am    
   3 C3             0.9806    -0.7075     0.8931 C.3     
   4 C4             2.3749    -0.5608     0.2856 C.3     
   5 C5             2.5995     0.8441    -0.2082 C.ar    
   6 C6             3.9126     1.2580    -0.3979 C.ar    
   7 C7             4.1884     2.5290    -0.8566 C.ar    
   8 C8             3.1512     3.4010    -1.1316 C.ar    
   9 C9             1.8469     2.9941    -0.9407 C.ar    
  10 C10            1.5681     1.7161    -0.4753 C.ar    
  11 O11            3.3550    -0.8727     1.2776 O.3     
  12 C12            4.5108    -1.4421     0.8455 C.ar    
  13 C13            5.5191    -1.7405     1.7504 C.ar    
  14 C14            6.6931    -2.3193     1.3086 C.ar    
  15 C15            6.8636    -2.6013    -0.0342 C.ar    
  16 C16            5.8603    -2.3045    -0.9381 C.ar    
  17 C17            4.6820    -1.7313    -0.5005 C.ar    
  18 C18            8.1452    -3.2327    -0.5134 C.3     
  19 F19            8.0211    -4.6257    -0.4763 F       
  20 F20            8.4051    -2.8225    -1.8254 F       
  21 F21            9.1993    -2.8362     0.3166 F       
  22 C22           -0.9288    -0.8483    -0.6507 C.2     
  23 C23           -1.9579    -0.1962    -1.4847 C.ar    
  24 C24           -2.4927    -0.8670    -2.5836 C.ar    
  25 C25           -3.4638    -0.2467    -3.3665 C.ar    
  26 C26           -3.8966     1.0498    -3.0426 C.ar    
  27 C27           -3.3570     1.7079    -1.9469 C.ar    
  28 C28           -2.4005     1.0923    -1.1690 C.ar    
  29 O29           -0.9327    -2.0564    -0.5145 O.2     
  30 C30           -4.0184    -0.9280    -4.4974 C.1     
  31 C31           -4.4730    -1.4866    -5.4245 C.1     
  32 C32           -5.0276    -2.1679    -6.5554 C.ar    
  33 C33           -6.0015    -1.5385    -7.3357 C.ar    
  34 C34           -6.5267    -2.2102    -8.4242 C.ar    
  35 C35           -6.0638    -3.4900    -8.7008 C.ar    
  36 C36           -5.0982    -4.0541    -7.8876 C.ar    
  37 N37           -4.6085    -3.3928    -6.8589 N.ar    
  38 O38           -4.8417     1.6584    -3.8012 O.3     
  39 C39           -5.2345     2.9767    -3.4140 C.3     
  40 H40           -0.4464     1.6019    -1.1717 H       
  41 H41           -0.2813     1.8790     0.5780 H       
  42 H42            0.9396    -0.1900     1.8515 H       
  43 H43            0.7484    -1.7632     1.0329 H       
  44 H44            2.4771    -1.2547    -0.5488 H       
  45 H45            4.7242     0.5784    -0.1840 H       
  46 H46            5.2118     2.8425    -1.0003 H       
  47 H47            3.3612     4.3964    -1.4940 H       
  48 H48            1.0364     3.6751    -1.1545 H       
  49 H49            5.3866    -1.5201     2.7993 H       
  50 H50            7.4785    -2.5514     2.0126 H       
  51 H51            5.9961    -2.5251    -1.9866 H       
  52 H52            3.8967    -1.5041    -1.2063 H       
  53 H53           -2.1552    -1.8636    -2.8272 H       
  54 H54           -3.6910     2.7048    -1.7001 H       
  55 H55           -1.9881     1.6085    -0.3146 H       
  56 H56           -6.3392    -0.5421    -7.0918 H       
  57 H57           -7.2807    -1.7499    -9.0454 H       
  58 H58           -6.4550    -4.0402    -9.5438 H       
  59 H59           -4.7372    -5.0493    -8.1014 H       
  60 H60           -5.6414     2.9523    -2.4031 H       
  61 H61           -4.3676     3.6368    -3.4409 H       
  62 H62           -5.9942     3.3464    -4.1026 H       
@<TRIPOS>BOND
   1    1    2 1
   2    1   10 1
   3    1   40 1
   4    1   41 1
   5    2    3 1
   6    2   22 am
   7    3    4 1
   8    3   42 1
   9    3   43 1
  10    4    5 1
  11    4   11 1
  12    4   44 1
  13    5    6 ar
  14    5   10 ar
  15    6    7 ar
  16    6   45 1
  17    7    8 ar
  18    7   46 1
  19    8    9 ar
  20    8   47 1
  21    9   10 ar
  22    9   48 1
  23   11   12 1
  24   12   13 ar
  25   12   17 ar
  26   13   14 ar
  27   13   49 1
  28   14   15 ar
  29   14   50 1
  30   15   16 ar
  31   15   18 1
  32   16   17 ar
  33   16   51 1
  34   17   52 1
  35   18   19 1
  36   18   20 1
  37   18   21 1
  38   22   23 1
  39   22   29 2
  40   23   24 ar
  41   23   28 ar
  42   24   25 ar
  43   24   53 1
  44   25   26 ar
  45   25   30 1
  46   26   27 ar
  47   26   38 1
  48   27   28 ar
  49   27   54 1
  50   28   55 1
  51   30   31 3
  52   31   32 1
  53   32   33 ar
  54   32   37 ar
  55   33   34 ar
  56   33   56 1
  57   34   35 ar
  58   34   57 1
  59   35   36 ar
  60   35   58 1
  61   36   37 ar
  62   36   59 1
  63   38   39 1
  64   39   60 1
  65   39   61 1
  66   39   62 1

#	End of record

