#	Name: ASD05430052
#	Creating user name:	WinNT
#	Creation time:	15. 06. 2019 20:59

#	Modifying user name:	WinNT
#	Modification time:	15. 06. 2019 20:59

#	Program:	/corina/corina34_cracker 3.40 0067  02.08.2006

@<TRIPOS>MOLECULE
ASD05430052
  62   68    0    0    0
SMALL
NO_CHARGES


@<TRIPOS>ATOM
   1 C1             0.5163     1.1279    -1.9281 C.ar    
   2 C2             0.5746    -0.2546    -1.7688 C.ar    
   3 C3             1.7194    -0.8459    -1.2579 C.ar    
   4 C4             2.8051    -0.0646    -0.9056 C.ar    
   5 C5             2.7703     1.3158    -1.0558 C.ar    
   6 C6             1.6028     1.9491    -1.5799 C.ar    
   7 O7             5.3857     0.2147    -0.8102 O.3     
   8 C8             5.1407     1.5360    -0.5081 C.2     
   9 C9             3.9345     2.1242    -0.6751 C.2     
  10 C10            6.5694    -0.0506    -1.5570 C.3     
  11 C11            7.8348     0.4338    -0.8551 C.3     
  12 N12            7.6059     1.7399    -0.2509 N.pl3   
  13 C13            6.3294     2.2509     0.0188 C.2     
  14 C14           -0.4992    -2.1665    -2.9163 C.2     
  15 N15           -0.5241    -1.0476    -2.1246 N.pl3   
  16 C16           -1.7665    -2.6148    -2.9980 C.2     
  17 N17           -2.5476    -1.7960    -2.2781 N.2     
  18 C18           -1.8152    -0.8533    -1.7500 C.2     
  19 C19           -2.2274    -3.8267    -3.7661 C.3     
  20 C20            8.5531     2.7687     0.1751 C.3     
  21 O21            7.7637     3.6029     1.0499 O.3     
  22 N22            6.4066     3.3144     0.7366 N.2     
  23 C23            9.7058     2.1525     0.9252 C.ar    
  24 C24            9.0561     3.5706    -1.0269 C.3     
  25 O25           10.0642     4.4885    -0.5989 O.3     
  26 C26           10.2909     0.9901     0.4588 C.ar    
  27 C27           10.1810     2.7533     2.0760 C.ar    
  28 C28           11.2386     2.1897     2.7642 C.ar    
  29 C29           11.8220     1.0226     2.3010 C.ar    
  30 C30           11.3483     0.4244     1.1456 C.ar    
  31 F31           12.8560     0.4707     2.9730 F       
  32 N32            0.1929     3.6408    -2.3061 N.2     
  33 S33           -0.7229     2.2316    -2.5341 S.3     
  34 C34            6.6791    -1.5667    -1.8288 C.3     
  35 C35            7.2582    -1.5877    -3.2613 C.3     
  36 N36            6.8530    -0.3133    -3.8666 N.am    
  37 C37            6.4676     0.5714    -2.9300 C.2     
  38 O38            6.0933     1.7029    -3.1547 O.2     
  39 C39            1.3386     3.3052    -1.8184 C.2     
  40 H40            1.7636    -1.9179    -1.1344 H       
  41 H41            3.6923    -0.5346    -0.5077 H       
  42 H42            3.8280     3.1889    -0.5283 H       
  43 H43            8.1129    -0.2794    -0.0791 H       
  44 H44            8.6444     0.5085    -1.5810 H       
  45 H45            0.3693    -2.6023    -3.3877 H       
  46 H46           -2.1755    -0.0528    -1.1208 H       
  47 H47           -2.1853    -4.7038    -3.1203 H       
  48 H48           -3.2521    -3.6740    -4.1050 H       
  49 H49           -1.5784    -3.9788    -4.6284 H       
  50 H50            9.4753     2.8901    -1.7680 H       
  51 H51            8.2262     4.1223    -1.4686 H       
  52 H52           10.4293     5.0317    -1.3108 H       
  53 H53            9.9212     0.5236    -0.4424 H       
  54 H54            9.7258     3.6637     2.4372 H       
  55 H55           11.6102     2.6596     3.6629 H       
  56 H56           11.8024    -0.4862     0.7835 H       
  57 H57            7.3627    -2.0410    -1.1246 H       
  58 H58            5.6981    -2.0408    -1.7975 H       
  59 H59            8.3452    -1.6605    -3.2277 H       
  60 H60            6.8409    -2.4224    -3.8246 H       
  61 H61            6.8624    -0.1324    -4.8196 H       
  62 H62            2.0828     4.0563    -1.5985 H       
@<TRIPOS>BOND
   1    1    2 ar
   2    1    6 ar
   3    1   33 1
   4    2    3 ar
   5    2   15 1
   6    3    4 ar
   7    3   40 1
   8    4    5 ar
   9    4   41 1
  10    5    6 ar
  11    5    9 1
  12    6   39 1
  13    7    8 1
  14    7   10 1
  15    8    9 2
  16    8   13 1
  17    9   42 1
  18   10   11 1
  19   10   34 1
  20   10   37 1
  21   11   12 1
  22   11   43 1
  23   11   44 1
  24   12   13 1
  25   12   20 1
  26   13   22 2
  27   14   15 1
  28   14   16 2
  29   14   45 1
  30   15   18 1
  31   16   17 1
  32   16   19 1
  33   17   18 2
  34   18   46 1
  35   19   47 1
  36   19   48 1
  37   19   49 1
  38   20   21 1
  39   20   23 1
  40   20   24 1
  41   21   22 1
  42   23   26 ar
  43   23   27 ar
  44   24   25 1
  45   24   50 1
  46   24   51 1
  47   25   52 1
  48   26   30 ar
  49   26   53 1
  50   27   28 ar
  51   27   54 1
  52   28   29 ar
  53   28   55 1
  54   29   30 ar
  55   29   31 1
  56   30   56 1
  57   32   33 1
  58   32   39 2
  59   34   35 1
  60   34   57 1
  61   34   58 1
  62   35   36 1
  63   35   59 1
  64   35   60 1
  65   36   37 am
  66   36   61 1
  67   37   38 2
  68   39   62 1

#	End of record

