#	Name: ASD03731215
#	Creating user name:	WinNT
#	Creation time:	15. 06. 2019 20:45

#	Modifying user name:	WinNT
#	Modification time:	15. 06. 2019 20:45

#	Program:	/corina/corina34_cracker 3.40 0067  02.08.2006

@<TRIPOS>MOLECULE
ASD03731215
  62   68    0    0    0
SMALL
NO_CHARGES


@<TRIPOS>ATOM
   1 C1            -0.0182     1.4735     0.0148 C.2     
   2 C2             0.0014    -0.0045     0.0118 C.ar    
   3 C3             1.2177    -0.6894     0.0014 C.ar    
   4 C4             1.2289    -2.0689    -0.0014 C.ar    
   5 C5             0.0382    -2.7735     0.0060 C.ar    
   6 C6            -1.1708    -2.1008     0.0164 C.ar    
   7 C7            -1.1962    -0.7215     0.0251 C.ar    
   8 O8             1.0264     2.0953     0.0082 O.2     
   9 N9            -1.1942     2.1319     0.0193 N.am    
  10 C10           -1.2149     3.5256     0.1325 C.ar    
  11 C11           -2.1831     4.2640    -0.5361 C.ar    
  12 C12           -2.2007     5.6400    -0.4223 C.ar    
  13 C13           -1.2556     6.2832     0.3561 C.ar    
  14 C14           -0.2906     5.5512     1.0230 C.ar    
  15 C15           -0.2711     4.1740     0.9182 C.ar    
  16 C16           -3.2507     6.4418    -1.1473 C.3     
  17 F17           -4.3723     6.5931    -0.3250 F       
  18 F18           -2.7352     7.7019    -1.4695 F       
  19 F19           -3.6191     5.7749    -2.3206 F       
  20 C20            0.0582    -4.2803     0.0024 C.3     
  21 O21           -2.0706    -1.5135     6.2876 O.3     
  22 C22           -2.3010    -1.5941     7.7066 C.3     
  23 O23           -2.7999    -2.9312     7.8969 O.3     
  24 C24           -2.2725    -3.6674     6.8748 C.ar    
  25 C25           -1.8252    -2.7951     5.8852 C.ar    
  26 C26           -2.1348    -5.0335     6.7066 C.ar    
  27 C27           -1.5524    -5.5465     5.5515 C.ar    
  28 C28           -1.1169    -4.6656     4.5663 C.ar    
  29 C29           -1.2472    -3.3027     4.7337 C.ar    
  30 O30           -1.3091    -6.8414     5.1989 O.3     
  31 C31           -0.5689    -5.5103     3.4473 C.3     
  32 C32           -1.0948    -6.9142     3.7761 C.3     
  33 N33            0.0752    -4.7718     1.3824 N.am    
  34 C34           -1.0343    -5.0396     2.0995 C.2     
  35 C35            0.9293    -5.4742     3.3858 C.ar    
  36 C36            1.9262    -5.7831     4.2841 C.ar    
  37 C37            3.2539    -5.6432     3.9212 C.ar    
  38 C38            3.5772    -5.1917     2.6545 C.ar    
  39 C39            2.5824    -4.8801     1.7514 C.ar    
  40 C40            1.2432    -5.0184     2.1080 C.ar    
  41 O41           -2.1833    -4.9234     1.7288 O.2     
  42 H42            2.1479    -0.1406    -0.0048 H       
  43 H43            2.1692    -2.6001    -0.0099 H       
  44 H44           -2.0967    -2.6567     0.0222 H       
  45 H45           -2.1405    -0.1976     0.0377 H       
  46 H46           -2.0262     1.6390    -0.0560 H       
  47 H47           -2.9209     3.7624    -1.1447 H       
  48 H48           -1.2711     7.3596     0.4430 H       
  49 H49            0.4463     6.0565     1.6297 H       
  50 H50            0.4799     3.6025     1.4433 H       
  51 H51           -0.8308    -4.6543    -0.5055 H       
  52 H52            0.9489    -4.6306    -0.5191 H       
  53 H53           -1.3695    -1.4513     8.2545 H       
  54 H54           -3.0449    -0.8600     8.0161 H       
  55 H55           -2.4817    -5.7065     7.4768 H       
  56 H56           -0.8978    -2.6297     3.9647 H       
  57 H57           -0.3501    -7.6728     3.5351 H       
  58 H58           -2.0310    -7.1092     3.2531 H       
  59 H59            1.6714    -6.1353     5.2728 H       
  60 H60            4.0360    -5.8862     4.6252 H       
  61 H61            4.6137    -5.0824     2.3713 H       
  62 H62            2.8428    -4.5277     0.7643 H       
@<TRIPOS>BOND
   1    1    2 1
   2    1    8 2
   3    1    9 am
   4    2    3 ar
   5    2    7 ar
   6    3    4 ar
   7    3   42 1
   8    4    5 ar
   9    4   43 1
  10    5    6 ar
  11    5   20 1
  12    6    7 ar
  13    6   44 1
  14    7   45 1
  15    9   10 1
  16    9   46 1
  17   10   11 ar
  18   10   15 ar
  19   11   12 ar
  20   11   47 1
  21   12   13 ar
  22   12   16 1
  23   13   14 ar
  24   13   48 1
  25   14   15 ar
  26   14   49 1
  27   15   50 1
  28   16   17 1
  29   16   18 1
  30   16   19 1
  31   20   33 1
  32   20   51 1
  33   20   52 1
  34   21   22 1
  35   21   25 1
  36   22   23 1
  37   22   53 1
  38   22   54 1
  39   23   24 1
  40   24   25 ar
  41   24   26 ar
  42   25   29 ar
  43   26   27 ar
  44   26   55 1
  45   27   28 ar
  46   27   30 1
  47   28   29 ar
  48   28   31 1
  49   29   56 1
  50   30   32 1
  51   31   32 1
  52   31   34 1
  53   31   35 1
  54   32   57 1
  55   32   58 1
  56   33   34 am
  57   33   40 1
  58   34   41 2
  59   35   36 ar
  60   35   40 ar
  61   36   37 ar
  62   36   59 1
  63   37   38 ar
  64   37   60 1
  65   38   39 ar
  66   38   61 1
  67   39   40 ar
  68   39   62 1

#	End of record

