#	Name: ASD03091242
#	Creating user name:	WinNT
#	Creation time:	15. 06. 2019 20:30

#	Modifying user name:	WinNT
#	Modification time:	15. 06. 2019 20:30

#	Program:	/corina/corina34_cracker 3.40 0067  02.08.2006

@<TRIPOS>MOLECULE
ASD03091242
  48   52    0    0    0
SMALL
NO_CHARGES


@<TRIPOS>ATOM
   1 N1            -0.0157     1.3039     0.0083 N.2     
   2 C2             0.0021    -0.0038     0.0376 C.2     
   3 N3             1.1594    -0.7346     0.0634 N.am    
   4 C4             2.3618    -0.1133     0.0589 C.2     
   5 C5             2.3659     1.3568     0.0256 C.ar    
   6 C6             3.5520     2.0873     0.0181 C.ar    
   7 C7             3.4972     3.4705    -0.0141 C.ar    
   8 C8             2.2671     4.1281    -0.0384 C.ar    
   9 C9             1.0966     3.4258    -0.0313 C.ar    
  10 C10            1.1220     2.0280     0.0010 C.ar    
  11 O11            3.4006    -0.7475     0.0819 O.2     
  12 C12           -1.2866    -0.7255     0.0436 C.ar    
  13 C13           -2.4905    -0.0142     0.0184 C.ar    
  14 C14           -3.6921    -0.6975     0.0243 C.ar    
  15 C15           -3.7041    -2.0799     0.0556 C.ar    
  16 C16           -2.5158    -2.7888     0.0807 C.ar    
  17 C17           -1.3089    -2.1210     0.0688 C.ar    
  18 F18           -2.4791     1.3365    -0.0112 F       
  19 N19            7.4092     4.9770    -0.8855 N.3     
  20 C20            7.1453     4.1125     0.2749 C.3     
  21 C21            5.8531     3.3343     0.0822 C.3     
  22 N22            4.6816     4.2124    -0.0220 N.3     
  23 C23            4.7691     5.0522    -1.2248 C.3     
  24 C24            5.3908     6.3992    -0.8877 C.3     
  25 C25            6.8834     6.3269    -0.6365 C.3     
  26 C26            7.0223     4.4511    -2.1771 C.3     
  27 C27            5.5161     4.2949    -2.3074 C.3     
  28 H28            1.1174    -1.7035     0.0853 H       
  29 H29            4.5051     1.5797     0.0375 H       
  30 H30            2.2406     5.2075    -0.0627 H       
  31 H31            0.1520     3.9490    -0.0500 H       
  32 H32           -4.6233    -0.1507     0.0049 H       
  33 H33           -4.6456    -2.6091     0.0608 H       
  34 H34           -2.5334    -3.8683     0.1054 H       
  35 H35           -0.3830    -2.6767     0.0839 H       
  36 H36            7.9717     3.4121     0.3961 H       
  37 H37            7.0633     4.7286     1.1703 H       
  38 H38            5.9312     2.7403    -0.8285 H       
  39 H39            5.7162     2.6620     0.9292 H       
  40 H40            3.7564     5.2281    -1.5875 H       
  41 H41            5.2085     7.0851    -1.7150 H       
  42 H42            4.9050     6.7949     0.0043 H       
  43 H43            7.0837     6.6013     0.3993 H       
  44 H44            7.3897     7.0330    -1.2946 H       
  45 H45            7.3761     5.1279    -2.9548 H       
  46 H46            7.4921     3.4776    -2.3175 H       
  47 H47            5.2624     3.2370    -2.2391 H       
  48 H48            5.2040     4.6702    -3.2820 H       
@<TRIPOS>BOND
   1    1    2 2
   2    1   10 1
   3    2    3 1
   4    2   12 1
   5    3    4 am
   6    3   28 1
   7    4    5 1
   8    4   11 2
   9    5    6 ar
  10    5   10 ar
  11    6    7 ar
  12    6   29 1
  13    7    8 ar
  14    7   22 1
  15    8    9 ar
  16    8   30 1
  17    9   10 ar
  18    9   31 1
  19   12   13 ar
  20   12   17 ar
  21   13   14 ar
  22   13   18 1
  23   14   15 ar
  24   14   32 1
  25   15   16 ar
  26   15   33 1
  27   16   17 ar
  28   16   34 1
  29   17   35 1
  30   19   20 1
  31   19   25 1
  32   19   26 1
  33   20   21 1
  34   20   36 1
  35   20   37 1
  36   21   22 1
  37   21   38 1
  38   21   39 1
  39   22   23 1
  40   23   24 1
  41   23   27 1
  42   23   40 1
  43   24   25 1
  44   24   41 1
  45   24   42 1
  46   25   43 1
  47   25   44 1
  48   26   27 1
  49   26   45 1
  50   26   46 1
  51   27   47 1
  52   27   48 1

#	End of record

