#	Name: ASD01238010
#	Creating user name:	WinNT
#	Creation time:	15. 06. 2019 19:15

#	Modifying user name:	WinNT
#	Modification time:	15. 06. 2019 19:15

#	Program:	/corina/corina34_cracker 3.40 0067  02.08.2006

@<TRIPOS>MOLECULE
ASD01238010
  57   59    0    0    0
SMALL
NO_CHARGES


@<TRIPOS>ATOM
   1 C1             3.0281     2.8811     1.2105 C.2     
   2 C2             3.7263     1.7118     1.3255 C.2     
   3 C3             5.1658     1.8976     1.3161 C.2     
   4 C4             5.5130     3.1843     1.1957 C.2     
   5 S5             4.0894     4.2069     1.0904 S.3     
   6 C6             6.9446     3.6834     1.1567 C.3     
   7 C7             7.8648     2.5800     1.6858 C.3     
   8 C8             7.5391     1.2691     0.9637 C.3     
   9 C9             6.1723     0.7638     1.4299 C.3     
  10 C10            3.0845     0.3991     1.4473 C.2     
  11 O11            2.8239    -0.2459     0.4486 O.2     
  12 N12            2.7830    -0.0932     2.6652 N.am    
  13 N13            1.6448     2.9743     1.1886 N.am    
  14 C14            1.0523     4.1791     1.0712 C.2     
  15 O15            1.7291     5.1818     0.9848 O.2     
  16 C16           -0.4511     4.2804     1.0474 C.3     
  17 N17           -0.8438     5.6854     0.9134 N.pl3   
  18 N18           -0.4473     6.7355     1.7516 N.2     
  19 C19           -0.9996     7.8381     1.3146 C.2     
  20 C20           -1.7644     7.5261     0.1858 C.2     
  21 C21           -1.6468     6.1976    -0.0426 C.2     
  22 C22           -2.5716     8.4988    -0.6348 C.3     
  23 N23           -1.7007     9.1434    -1.6267 N.3     
  24 C24           -2.4189    10.2017    -2.3492 C.3     
  25 C25           -0.8398     9.2077     1.9227 C.3     
  26 C26            0.2157     9.1544     3.0290 C.3     
  27 C27           -0.3970    10.1967     0.8426 C.3     
  28 C28           -2.1757     9.6624     2.5137 C.3     
  29 H29            7.2189     3.9272     0.1303 H       
  30 H30            7.0397     4.5703     1.7832 H       
  31 H31            8.9039     2.8509     1.4988 H       
  32 H32            7.7062     2.4554     2.7570 H       
  33 H33            7.5150     1.4423    -0.1122 H       
  34 H34            8.3014     0.5257     1.1968 H       
  35 H35            6.2394     0.4375     2.4677 H       
  36 H36            5.8562    -0.0697     0.8025 H       
  37 H37            2.9906     0.4209     3.4611 H       
  38 H38            2.3584    -0.9616     2.7457 H       
  39 H39            1.1035     2.1723     1.2577 H       
  40 H40           -0.8402     3.7122     0.2025 H       
  41 H41           -0.8572     3.8764     1.9748 H       
  42 H42           -2.1141     5.6455    -0.8447 H       
  43 H43           -3.3725     7.9652    -1.1466 H       
  44 H44           -3.0009     9.2576     0.0196 H       
  45 H45           -0.8645     9.5051    -1.1929 H       
  46 H46           -1.7511    10.6623    -3.0772 H       
  47 H47           -3.2773     9.7713    -2.8650 H       
  48 H48           -2.7614    10.9568    -1.6416 H       
  49 H49            1.1674     8.8305     2.6080 H       
  50 H50            0.3313    10.1450     3.4689 H       
  51 H51           -0.0998     8.4498     3.7985 H       
  52 H52           -1.2236    10.3790     0.1559 H       
  53 H53           -0.0989    11.1354     1.3096 H       
  54 H54            0.4471     9.7804     0.2927 H       
  55 H55           -2.5312     8.9164     3.2246 H       
  56 H56           -2.0414    10.6159     3.0244 H       
  57 H57           -2.9064     9.7786     1.7133 H       
@<TRIPOS>BOND
   1    1    2 2
   2    1    5 1
   3    1   13 1
   4    2    3 1
   5    2   10 1
   6    3    4 2
   7    3    9 1
   8    4    5 1
   9    4    6 1
  10    6    7 1
  11    6   29 1
  12    6   30 1
  13    7    8 1
  14    7   31 1
  15    7   32 1
  16    8    9 1
  17    8   33 1
  18    8   34 1
  19    9   35 1
  20    9   36 1
  21   10   11 2
  22   10   12 am
  23   12   37 1
  24   12   38 1
  25   13   14 am
  26   13   39 1
  27   14   15 2
  28   14   16 1
  29   16   17 1
  30   16   40 1
  31   16   41 1
  32   17   18 1
  33   17   21 1
  34   18   19 2
  35   19   20 1
  36   19   25 1
  37   20   21 2
  38   20   22 1
  39   21   42 1
  40   22   23 1
  41   22   43 1
  42   22   44 1
  43   23   24 1
  44   23   45 1
  45   24   46 1
  46   24   47 1
  47   24   48 1
  48   25   26 1
  49   25   28 1
  50   25   27 1
  51   26   49 1
  52   26   50 1
  53   26   51 1
  54   27   52 1
  55   27   53 1
  56   27   54 1
  57   28   55 1
  58   28   56 1
  59   28   57 1

#	End of record

