#	Name: ASD01814374
#	Creating user name:	WinNT
#	Creation time:	15. 06. 2019 19:32

#	Modifying user name:	WinNT
#	Modification time:	15. 06. 2019 19:32

#	Program:	/corina/corina34_cracker 3.40 0067  02.08.2006

@<TRIPOS>MOLECULE
ASD01814374
  50   53    0    0    0
SMALL
NO_CHARGES


@<TRIPOS>ATOM
   1 C1            -0.0149     1.3824    -0.1216 C.ar    
   2 C2             0.0026    -0.0052    -0.0251 C.ar    
   3 C3             1.1792    -0.6873     0.0671 C.ar    
   4 C4             2.3937     0.0156     0.0651 C.ar    
   5 C5             2.3720     1.4282    -0.0334 C.ar    
   6 C6             1.1473     2.0972    -0.1265 C.ar    
   7 C7             3.6268    -0.6631     0.1588 C.ar    
   8 C8             4.8004     0.0128     0.1566 C.ar    
   9 C9             4.8346     1.4127     0.0611 C.ar    
  10 C10            3.6407     2.1507    -0.0347 C.ar    
  11 C11            6.1012     2.1559     0.0567 C.2     
  12 N12            6.0328     3.5041    -0.0399 N.am    
  13 C13            4.8316     4.1279    -0.1281 C.2     
  14 N14            3.6976     3.4899    -0.1265 N.2     
  15 C15            3.6384    -2.1664     0.2637 C.3     
  16 O16            7.1718     1.5812     0.1373 O.2     
  17 C17            7.2655     4.2957    -0.0490 C.3     
  18 C18            7.3517     5.0903    -1.3536 C.3     
  19 C19            6.1449     6.0245    -1.4625 C.3     
  20 C20            6.1392     6.9907    -0.2762 C.3     
  21 C21            6.0530     6.1960     1.0284 C.3     
  22 C22            7.2598     5.2619     1.1373 C.3     
  23 Cl23           3.7069    -2.8837    -1.3891 Cl      
  24 N24            7.3572     4.1626    -2.4926 N.3     
  25 C25            7.4393     4.8919    -3.7651 C.3     
  26 C26            8.4500     3.1883    -2.3727 C.3     
  27 H27           -0.9597     1.9000    -0.1981 H       
  28 H28           -0.9298    -0.5502    -0.0228 H       
  29 H29            1.1766    -1.7647     0.1419 H       
  30 H30            1.1217     3.1742    -0.2023 H       
  31 H31            5.7278    -0.5358     0.2300 H       
  32 H32            4.8156     5.2052    -0.2031 H       
  33 H33            4.5112    -2.4842     0.8341 H       
  34 H34            2.7325    -2.5025     0.7683 H       
  35 H35            8.1252     3.6302     0.0286 H       
  36 H36            8.2689     5.6793    -1.3603 H       
  37 H37            6.2064     6.5906    -2.3919 H       
  38 H38            5.2278     5.4355    -1.4557 H       
  39 H39            7.0564     7.5797    -0.2829 H       
  40 H40            5.2795     7.6562    -0.3537 H       
  41 H41            6.0489     6.8844     1.8736 H       
  42 H42            5.1358     5.6071     1.0351 H       
  43 H43            7.1984     4.6958     2.0667 H       
  44 H44            8.1769     5.8509     1.1306 H       
  45 H45            8.3571     5.4795    -3.7886 H       
  46 H46            7.4417     4.1813    -4.5916 H       
  47 H47            6.5802     5.5560    -3.8594 H       
  48 H48            8.3256     2.6139    -1.4547 H       
  49 H49            8.4309     2.5138    -3.2287 H       
  50 H50            9.4044     3.7142    -2.3457 H       
@<TRIPOS>BOND
   1    1    2 ar
   2    1    6 ar
   3    1   27 1
   4    2    3 ar
   5    2   28 1
   6    3    4 ar
   7    3   29 1
   8    4    5 ar
   9    4    7 ar
  10    5    6 ar
  11    5   10 ar
  12    6   30 1
  13    7    8 ar
  14    7   15 1
  15    8    9 ar
  16    8   31 1
  17    9   10 ar
  18    9   11 1
  19   10   14 1
  20   11   12 am
  21   11   16 2
  22   12   13 1
  23   12   17 1
  24   13   14 2
  25   13   32 1
  26   15   23 1
  27   15   33 1
  28   15   34 1
  29   17   18 1
  30   17   22 1
  31   17   35 1
  32   18   19 1
  33   18   24 1
  34   18   36 1
  35   19   20 1
  36   19   37 1
  37   19   38 1
  38   20   21 1
  39   20   39 1
  40   20   40 1
  41   21   22 1
  42   21   41 1
  43   21   42 1
  44   22   43 1
  45   22   44 1
  46   24   25 1
  47   24   26 1
  48   25   45 1
  49   25   46 1
  50   25   47 1
  51   26   48 1
  52   26   49 1
  53   26   50 1

#	End of record

