#	Name: ASD08070565
#	Creating user name:	WinNT
#	Creation time:	15. 06. 2019 21:15

#	Modifying user name:	WinNT
#	Modification time:	15. 06. 2019 21:15

#	Program:	/corina/corina34_cracker 3.40 0067  02.08.2006

@<TRIPOS>MOLECULE
ASD08070565
  41   41    0    0    0
SMALL
NO_CHARGES


@<TRIPOS>ATOM
   1 C1            -0.1938     1.6841     0.0792 C.ar    
   2 C2            -0.2378     0.2919     0.0604 C.ar    
   3 C3             0.9441    -0.4445     0.0219 C.ar    
   4 C4             2.1542     0.1994     0.0020 C.ar    
   5 C5             2.2014     1.5969     0.0203 C.ar    
   6 C6             1.0134     2.3335     0.0595 C.ar    
   7 C7             3.5016     2.2925    -0.0005 C.2     
   8 O8             4.5340     1.6508    -0.0337 O.2     
   9 N9             3.5457     3.6394     0.0172 N.am    
  10 C10            4.8347     4.3290     0.1132 C.3     
  11 C11            4.7292     5.6841    -0.5377 C.2     
  12 S12           -1.7912    -0.5391     0.0859 S.3     
  13 C13            5.2139     4.4986     1.5857 C.3     
  14 C14            6.6321     5.0639     1.6852 C.3     
  15 O15            5.7958     6.4983    -0.5692 O.3     
  16 C16            5.6215     7.7884    -1.2124 C.3     
  17 C17           -1.3180    -2.2900     0.0495 C.3     
  18 C18            6.9717     5.3341     3.1524 C.3     
  19 C19            7.6258     4.0528     1.1097 C.3     
  20 O20            3.6844     6.0376    -1.0311 O.2     
  21 H21           -1.1117     2.2526     0.1048 H       
  22 H22            0.9070    -1.5237     0.0081 H       
  23 H23            3.0701    -0.3720    -0.0274 H       
  24 H24            1.0469     3.4129     0.0733 H       
  25 H25            2.7239     4.1522    -0.0336 H       
  26 H26            5.5999     3.7410    -0.3937 H       
  27 H27            4.5149     5.1845     2.0642 H       
  28 H28            5.1727     3.5307     2.0853 H       
  29 H29            6.6927     5.9945     1.1209 H       
  30 H30            4.8406     8.3484    -0.6977 H       
  31 H31            6.5572     8.3457    -1.1685 H       
  32 H32            5.3357     7.6396    -2.2536 H       
  33 H33           -0.7487    -2.4937    -0.8574 H       
  34 H34           -0.7059    -2.5191     0.9219 H       
  35 H35           -2.2150    -2.9091     0.0623 H       
  36 H36            6.9111     4.4035     3.7167 H       
  37 H37            7.9820     5.7369     3.2233 H       
  38 H38            6.2638     6.0544     3.5625 H       
  39 H39            7.4511     3.9405     0.0396 H       
  40 H40            8.6429     4.4076     1.2765 H       
  41 H41            7.4913     3.0901     1.6028 H       
@<TRIPOS>BOND
   1    1    2 ar
   2    1    6 ar
   3    1   21 1
   4    2    3 ar
   5    2   12 1
   6    3    4 ar
   7    3   22 1
   8    4    5 ar
   9    4   23 1
  10    5    6 ar
  11    5    7 1
  12    6   24 1
  13    7    8 2
  14    7    9 am
  15    9   10 1
  16    9   25 1
  17   10   11 1
  18   10   13 1
  19   10   26 1
  20   11   15 1
  21   11   20 2
  22   12   17 1
  23   13   14 1
  24   13   27 1
  25   13   28 1
  26   14   18 1
  27   14   19 1
  28   14   29 1
  29   15   16 1
  30   16   30 1
  31   16   31 1
  32   16   32 1
  33   17   33 1
  34   17   34 1
  35   17   35 1
  36   18   36 1
  37   18   37 1
  38   18   38 1
  39   19   39 1
  40   19   40 1
  41   19   41 1

#	End of record

