#	Name: ASD04590323
#	Creating user name:	WinNT
#	Creation time:	15. 06. 2019 20:50

#	Modifying user name:	WinNT
#	Modification time:	15. 06. 2019 20:50

#	Program:	/corina/corina34_cracker 3.40 0067  02.08.2006

@<TRIPOS>MOLECULE
ASD04590323
  43   46    0    0    0
SMALL
NO_CHARGES


@<TRIPOS>ATOM
   1 C1             0.0012     1.3977     0.1061 C.ar    
   2 C2             0.0164     0.0107     0.0645 C.ar    
   3 C3             1.1989    -0.6730     0.0472 C.ar    
   4 C4             2.4093     0.0273     0.0710 C.ar    
   5 C5             2.3938     1.4326     0.1127 C.ar    
   6 C6             1.1823     2.1094     0.1303 C.ar    
   7 N7             3.7087    -0.3588     0.0624 N.2     
   8 C8             4.4828     0.6989     0.0955 C.2     
   9 N9             3.7163     1.8328     0.1275 N.pl3   
  10 C10            5.9601     0.6713     0.0975 C.2     
  11 C11            6.7699    -0.4875     0.0638 C.2     
  12 C12            8.0649    -0.0872     0.0780 C.2     
  13 N13            8.0806     1.2710     0.1189 N.pl3   
  14 N14            6.7550     1.7230     0.1251 N.2     
  15 N15            6.3141    -1.8151     0.0235 N.am    
  16 C16            7.1995    -2.8309    -0.0057 C.2     
  17 C17            6.7205    -4.2262    -0.0481 C.ar    
  18 O18            8.3930    -2.5977     0.0028 O.2     
  19 C19            4.9130    -5.8057     0.0301 C.ar    
  20 C20            5.8212    -6.8457    -0.1277 C.ar    
  21 C21            7.1803    -6.5756    -0.2399 C.ar    
  22 C22            7.6312    -5.2753    -0.2008 C.ar    
  23 C23            5.3559    -4.5023     0.0702 C.ar    
  24 O24            5.3807    -8.1288    -0.1667 O.3     
  25 C25            9.1046    -4.9836    -0.3231 C.3     
  26 C26            3.9725    -8.3354    -0.0396 C.3     
  27 H27           -0.9420     1.9236     0.1152 H       
  28 H28           -0.9161    -0.5337     0.0460 H       
  29 H29            1.1991    -1.7525     0.0155 H       
  30 H30            1.1645     3.1888     0.1623 H       
  31 H31            4.0409     2.7465     0.1557 H       
  32 H32            8.9303    -0.7330     0.0602 H       
  33 H33            8.8727     1.8307     0.1373 H       
  34 H34            5.3622    -2.0011     0.0168 H       
  35 H35            3.8579    -6.0197     0.1170 H       
  36 H36            7.8829    -7.3866    -0.3625 H       
  37 H37            4.6495    -3.6947     0.1932 H       
  38 H38            9.5338    -4.8578     0.6709 H       
  39 H39            9.5983    -5.8129    -0.8297 H       
  40 H40            9.2474    -4.0693    -0.8990 H       
  41 H41            3.6317    -7.9377     0.9163 H       
  42 H42            3.4554    -7.8235    -0.8512 H       
  43 H43            3.7561    -9.4027    -0.0870 H       
@<TRIPOS>BOND
   1    1    2 ar
   2    1    6 ar
   3    1   27 1
   4    2    3 ar
   5    2   28 1
   6    3    4 ar
   7    3   29 1
   8    4    5 ar
   9    4    7 1
  10    5    6 ar
  11    5    9 1
  12    6   30 1
  13    7    8 2
  14    8    9 1
  15    8   10 1
  16    9   31 1
  17   10   11 1
  18   10   14 2
  19   11   12 2
  20   11   15 1
  21   12   13 1
  22   12   32 1
  23   13   14 1
  24   13   33 1
  25   15   16 am
  26   15   34 1
  27   16   17 1
  28   16   18 2
  29   17   22 ar
  30   17   23 ar
  31   19   20 ar
  32   19   23 ar
  33   19   35 1
  34   20   21 ar
  35   20   24 1
  36   21   22 ar
  37   21   36 1
  38   22   25 1
  39   23   37 1
  40   24   26 1
  41   25   38 1
  42   25   39 1
  43   25   40 1
  44   26   41 1
  45   26   42 1
  46   26   43 1

#	End of record

