#	Name: ASD01140322
#	Creating user name:	WinNT
#	Creation time:	15. 06. 2019 19:00

#	Modifying user name:	WinNT
#	Modification time:	15. 06. 2019 19:00

#	Program:	/corina/corina34_cracker 3.40 0067  02.08.2006

@<TRIPOS>MOLECULE
ASD01140322
  38   40    0    0    0
SMALL
NO_CHARGES


@<TRIPOS>ATOM
   1 C1            -0.0027     1.3295    -0.0231 C.2     
   2 C2             0.0316    -0.0301    -0.0131 C.2     
   3 C3             1.2701    -0.6955     0.0056 C.2     
   4 C4             2.4222     0.0106     0.0141 C.2     
   5 C5             1.2078     2.0522    -0.0145 C.2     
   6 N6             1.4659     3.3522    -0.0215 N.2     
   7 N7             2.4006     1.3769     0.0042 N.pl3   
   8 C8             3.3961     2.3135     0.0088 C.2     
   9 C9             2.7953     3.5363    -0.0082 C.2     
  10 C10            3.4914     4.8468    -0.0114 C.ar    
  11 C11            4.5125     5.0981     0.9027 C.ar    
  12 C12            5.1572     6.3179     0.8965 C.ar    
  13 C13            4.7910     7.2939    -0.0166 C.ar    
  14 C14            3.7770     7.0506    -0.9277 C.ar    
  15 C15            3.1293     5.8295    -0.9335 C.ar    
  16 C16            4.8788     2.0444     0.0287 C.3     
  17 C17            5.3682     1.8241    -1.3795 C.2     
  18 N18            6.6711     1.5649    -1.6073 N.am    
  19 O19            4.5897     1.8801    -2.3078 O.2     
  20 C20            7.1468     1.3507    -2.9762 C.3     
  21 C21            7.6114     1.4973    -0.4860 C.3     
  22 F22            1.3084    -2.0459     0.0156 F       
  23 F23            2.1441     5.5899    -1.8264 F       
  24 F24            5.4251     8.4869    -0.0175 F       
  25 H25           -0.9484     1.8507    -0.0420 H       
  26 H26           -0.8883    -0.5960    -0.0192 H       
  27 H27            3.3686    -0.5095     0.0292 H       
  28 H28            4.7988     4.3389     1.6155 H       
  29 H29            5.9487     6.5127     1.6050 H       
  30 H30            3.4949     7.8142    -1.6375 H       
  31 H31            5.3973     2.8987     0.4641 H       
  32 H32            5.0787     1.1550     0.6261 H       
  33 H33            7.4488     2.3043    -3.4093 H       
  34 H34            7.9994     0.6717    -2.9625 H       
  35 H35            6.3463     0.9167    -3.5754 H       
  36 H36            7.3022     0.7091     0.2005 H       
  37 H37            8.6109     1.2796    -0.8626 H       
  38 H38            7.6208     2.4528     0.0384 H       
@<TRIPOS>BOND
   1    1    2 2
   2    1    5 1
   3    1   25 1
   4    2    3 1
   5    2   26 1
   6    3    4 2
   7    3   22 1
   8    4    7 1
   9    4   27 1
  10    5    7 1
  11    5    6 2
  12    6    9 1
  13    7    8 1
  14    8    9 2
  15    8   16 1
  16    9   10 1
  17   10   11 ar
  18   10   15 ar
  19   11   12 ar
  20   11   28 1
  21   12   13 ar
  22   12   29 1
  23   13   14 ar
  24   13   24 1
  25   14   15 ar
  26   14   30 1
  27   15   23 1
  28   16   17 1
  29   16   31 1
  30   16   32 1
  31   17   18 am
  32   17   19 2
  33   18   20 1
  34   18   21 1
  35   20   33 1
  36   20   34 1
  37   20   35 1
  38   21   36 1
  39   21   37 1
  40   21   38 1

#	End of record

