#	Name: ASD01916142
#	Creating user name:	WinNT
#	Creation time:	15. 06. 2019 20:06

#	Modifying user name:	WinNT
#	Modification time:	15. 06. 2019 20:06

#	Program:	/corina/corina34_cracker 3.40 0067  02.08.2006

@<TRIPOS>MOLECULE
ASD01916142
  43   46    0    0    0
SMALL
NO_CHARGES


@<TRIPOS>ATOM
   1 C1            -0.1067     1.3874     0.0647 C.ar    
   2 C2            -0.0750     0.0044     0.0509 C.ar    
   3 C3            -1.2610    -0.7148     0.0419 C.ar    
   4 C4            -2.4761    -0.0455     0.0467 C.ar    
   5 C5            -2.5037     1.3360     0.0605 C.ar    
   6 C6            -1.3218     2.0523     0.0752 C.ar    
   7 O7            -1.2328    -2.0734     0.0279 O.3     
   8 C8            -2.4922    -2.7485     0.0192 C.3     
   9 C9            -2.2637    -4.2380     0.0041 C.2     
  10 C10           -1.0174    -4.8772    -0.0008 C.2     
  11 N11           -3.1967    -5.1578    -0.0009 N.2     
  12 N12           -2.5750    -6.4093    -0.0108 N.pl3   
  13 C13           -1.2373    -6.2054    -0.0155 C.2     
  14 C14           -3.2232    -7.7236    -0.0064 C.3     
  15 C15           -2.2216    -8.7825    -0.4799 C.3     
  16 N16           -0.9373    -8.5757     0.2065 N.am    
  17 C17           -0.2133    -7.3154    -0.0400 C.3     
  18 C18           -0.4373    -9.5094     1.0400 C.2     
  19 C19            0.9136    -9.3387     1.6162 C.ar    
  20 O20           -1.0969   -10.4918     1.3181 O.2     
  21 C21            1.1936    -9.7780     2.9152 C.ar    
  22 C22            2.4761    -9.5946     3.4080 C.ar    
  23 C23            3.4293    -8.9885     2.6060 C.ar    
  24 N24            3.1342    -8.5851     1.3849 N.ar    
  25 C25            1.9321    -8.7422     0.8716 C.ar    
  26 F26            1.0475     2.0894     0.0735 F       
  27 F27            2.7929   -10.0021     4.6565 F       
  28 H28            0.8721    -0.5147     0.0468 H       
  29 H29           -3.4004    -0.6040     0.0393 H       
  30 H30           -3.4500     1.8565     0.0642 H       
  31 H31           -1.3457     3.1320     0.0863 H       
  32 H32           -3.0564    -2.4765     0.9113 H       
  33 H33           -3.0540    -2.4581    -0.8686 H       
  34 H34           -0.0527    -4.3916     0.0060 H       
  35 H35           -3.5551    -7.9625     1.0040 H       
  36 H36           -4.0816    -7.7084    -0.6781 H       
  37 H37           -2.6039    -9.7760    -0.2453 H       
  38 H38           -2.0777    -8.6919    -1.5565 H       
  39 H39            0.2709    -7.3495    -1.0159 H       
  40 H40            0.5309    -7.1554     0.7401 H       
  41 H41            0.4301   -10.2472     3.5181 H       
  42 H42            4.4296    -8.8435     2.9864 H       
  43 H43            1.7299    -8.3984    -0.1321 H       
@<TRIPOS>BOND
   1    1    2 ar
   2    1   26 1
   3    1    6 ar
   4    2    3 ar
   5    2   28 1
   6    3    4 ar
   7    3    7 1
   8    4    5 ar
   9    4   29 1
  10    5    6 ar
  11    5   30 1
  12    6   31 1
  13    7    8 1
  14    8    9 1
  15    8   32 1
  16    8   33 1
  17    9   10 1
  18    9   11 2
  19   10   13 2
  20   10   34 1
  21   11   12 1
  22   12   13 1
  23   12   14 1
  24   13   17 1
  25   14   15 1
  26   14   35 1
  27   14   36 1
  28   15   16 1
  29   15   37 1
  30   15   38 1
  31   16   17 1
  32   16   18 am
  33   17   39 1
  34   17   40 1
  35   18   19 1
  36   18   20 2
  37   19   21 ar
  38   19   25 ar
  39   21   22 ar
  40   21   41 1
  41   22   23 ar
  42   22   27 1
  43   23   24 ar
  44   23   42 1
  45   24   25 ar
  46   25   43 1

#	End of record

