#	Name: ASD03240073
#	Creating user name:	WinNT
#	Creation time:	15. 06. 2019 20:34

#	Modifying user name:	WinNT
#	Modification time:	15. 06. 2019 20:34

#	Program:	/corina/corina34_cracker 3.40 0067  02.08.2006

@<TRIPOS>MOLECULE
ASD03240073
  68   73    0    0    0
SMALL
NO_CHARGES


@<TRIPOS>ATOM
   1 C1            -0.0170     1.4008     0.0097 C.ar    
   2 C2             0.0021    -0.0041     0.0020 C.ar    
   3 C3             1.1956     2.0982     0.0019 C.ar    
   4 C4             2.3797     1.3649    -0.0133 C.ar    
   5 C5             2.3148    -0.0387    -0.0203 C.ar    
   6 N6             1.1451    -0.6645    -0.0124 N.ar    
   7 C7             3.5670    -0.8288    -0.0369 C.ar    
   8 C8             3.6911     2.0562    -0.0226 C.ar    
   9 C9             3.9398     3.0727    -0.9436 C.ar    
  10 C10            5.1624     3.7126    -0.9476 C.ar    
  11 C11            6.1405     3.3468    -0.0404 C.ar    
  12 C12            5.8997     2.3385     0.8756 C.ar    
  13 C13            4.6784     1.6961     0.8933 C.ar    
  14 C14            3.6388    -2.0420     0.6478 C.ar    
  15 C15            4.8083    -2.7738     0.6281 C.ar    
  16 C16            5.9085    -2.3065    -0.0686 C.ar    
  17 C17            5.8435    -1.1040    -0.7497 C.ar    
  18 C18            4.6779    -0.3658    -0.7423 C.ar    
  19 C19            7.1831    -3.1104    -0.0852 C.3     
  20 N20            7.1623    -4.0377    -1.2243 N.3     
  21 C21            8.4754    -4.6669    -1.4147 C.3     
  22 C22            8.4578    -5.5110    -2.6911 C.3     
  23 C23            7.3701    -6.5822    -2.5738 C.3     
  24 C24            6.0201    -5.9028    -2.3277 C.3     
  25 C25            6.1084    -5.0473    -1.0618 C.3     
  26 N26            7.3093    -7.3563    -3.8161 N.am    
  27 C27            7.5158    -8.7289    -3.9322 C.ar    
  28 C28            7.3642    -9.0470    -5.2832 C.ar    
  29 N29            7.0703    -7.8578    -5.9462 N.am    
  30 C30            7.0386    -6.8632    -5.0393 C.2     
  31 C31            7.8160    -9.7268    -3.0174 C.ar    
  32 C32            7.9638   -11.0311    -3.4466 C.ar    
  33 C33            7.8135   -11.3464    -4.7862 C.ar    
  34 C34            7.5145   -10.3594    -5.7047 C.ar    
  35 O35            6.8086    -5.6945    -5.2886 O.2     
  36 O36           -1.1665    -0.6892     0.0099 O.3     
  37 C37           -1.0823    -2.1156     0.0015 C.3     
  38 C38           -1.2613     2.1095     0.0195 C.1     
  39 N39           -2.2485     2.6716     0.0272 N.1     
  40 H40            1.2132     3.1780     0.0072 H       
  41 H41            3.1771     3.3586    -1.6529 H       
  42 H42            5.3562     4.5003    -1.6607 H       
  43 H43            7.0961     3.8501    -0.0474 H       
  44 H44            6.6672     2.0566     1.5811 H       
  45 H45            4.4914     0.9090     1.6088 H       
  46 H46            2.7809    -2.4075     1.1926 H       
  47 H47            4.8652    -3.7132     1.1578 H       
  48 H48            6.7057    -0.7445    -1.2917 H       
  49 H49            4.6284     0.5728    -1.2743 H       
  50 H50            8.0356    -2.4378    -0.1797 H       
  51 H51            7.2678    -3.6763     0.8426 H       
  52 H52            9.2393    -3.8941    -1.5008 H       
  53 H53            8.6996    -5.3053    -0.5601 H       
  54 H54            8.2473    -4.8709    -3.5478 H       
  55 H55            9.4278    -5.9903    -2.8238 H       
  56 H56            7.6010    -7.2461    -1.7407 H       
  57 H57            5.7712    -5.2689    -3.1787 H       
  58 H58            5.2484    -6.6620    -2.2007 H       
  59 H59            6.3437    -5.6839    -0.2089 H       
  60 H60            5.1530    -4.5509    -0.8916 H       
  61 H61            6.9117    -7.7630    -6.8985 H       
  62 H62            7.9343    -9.4845    -1.9716 H       
  63 H63            8.1980   -11.8083    -2.7342 H       
  64 H64            7.9306   -12.3687    -5.1144 H       
  65 H65            7.3976   -10.6092    -6.7489 H       
  66 H66           -0.5568    -2.4433    -0.8956 H       
  67 H67           -0.5391    -2.4528     0.8843 H       
  68 H68           -2.0867    -2.5390     0.0092 H       
@<TRIPOS>BOND
   1    1    2 ar
   2    1    3 ar
   3    1   38 1
   4    2   36 1
   5    2    6 ar
   6    3    4 ar
   7    3   40 1
   8    4    5 ar
   9    4    8 1
  10    5    6 ar
  11    5    7 1
  12    7   14 ar
  13    7   18 ar
  14    8    9 ar
  15    8   13 ar
  16    9   10 ar
  17    9   41 1
  18   10   11 ar
  19   10   42 1
  20   11   12 ar
  21   11   43 1
  22   12   13 ar
  23   12   44 1
  24   13   45 1
  25   14   15 ar
  26   14   46 1
  27   15   16 ar
  28   15   47 1
  29   16   17 ar
  30   16   19 1
  31   17   18 ar
  32   17   48 1
  33   18   49 1
  34   19   20 1
  35   19   50 1
  36   19   51 1
  37   20   21 1
  38   20   25 1
  39   21   22 1
  40   21   52 1
  41   21   53 1
  42   22   23 1
  43   22   54 1
  44   22   55 1
  45   23   24 1
  46   23   26 1
  47   23   56 1
  48   24   25 1
  49   24   57 1
  50   24   58 1
  51   25   59 1
  52   25   60 1
  53   26   27 1
  54   26   30 am
  55   27   28 ar
  56   27   31 ar
  57   28   29 1
  58   28   34 ar
  59   29   30 am
  60   29   61 1
  61   30   35 2
  62   31   32 ar
  63   31   62 1
  64   32   33 ar
  65   32   63 1
  66   33   34 ar
  67   33   64 1
  68   34   65 1
  69   36   37 1
  70   37   66 1
  71   37   67 1
  72   37   68 1
  73   38   39 3

#	End of record

