#	Name: ASD01880608
#	Creating user name:	WinNT
#	Creation time:	15. 06. 2019 19:41

#	Modifying user name:	WinNT
#	Modification time:	15. 06. 2019 19:41

#	Program:	/corina/corina34_cracker 3.40 0067  02.08.2006

@<TRIPOS>MOLECULE
ASD01880608
  39   41    0    0    0
SMALL
NO_CHARGES


@<TRIPOS>ATOM
   1 N1            -0.0158     1.3115     0.0093 N.ar    
   2 C2             0.0021    -0.0041     0.0020 C.ar    
   3 N3             1.1307    -0.6864    -0.0124 N.ar    
   4 C4             2.3015    -0.0692    -0.0203 C.ar    
   5 C5             2.3344     1.3181    -0.0132 C.ar    
   6 C6             1.1203     2.0079     0.0021 C.ar    
   7 C7             3.6458     2.0606    -0.0212 C.3     
   8 O8             4.0479     2.3025    -1.3709 O.3     
   9 C9             5.2170     2.9664    -1.5559 C.ar    
  10 C10            5.6674     3.2350    -2.8448 C.ar    
  11 C11            6.8499     3.9070    -3.0305 C.ar    
  12 C12            7.6070     4.3246    -1.9309 C.ar    
  13 C13            7.1499     4.0526    -0.6385 C.ar    
  14 C14            5.9604     3.3824    -0.4578 C.ar    
  15 C15            7.6053     4.3478    -4.2595 C.3     
  16 N16            8.8129     5.0271    -3.7765 N.am    
  17 C17            8.8099     5.0114    -2.4325 C.2     
  18 O18            9.6765     5.4956    -1.7305 O.2     
  19 Br19           3.9089    -1.0651    -0.0404 Br      
  20 C20           10.5863     7.7096    -5.7827 C.3     
  21 C21            9.5019     7.0865    -4.9015 C.3     
  22 C22            9.8513     5.6237    -4.6203 C.3     
  23 C23            1.0966     3.4397     0.0096 C.1     
  24 N24            1.0777     4.5756     0.0155 N.1     
  25 H25           -0.9350    -0.5410     0.0084 H       
  26 H26            3.5282     3.0113     0.4988 H       
  27 H27            4.4051     1.4624     0.4825 H       
  28 H28            5.0876     2.9149    -3.6979 H       
  29 H29            7.7270     4.3703     0.2173 H       
  30 H30            5.6075     3.1728     0.5411 H       
  31 H31            7.8784     3.4816    -4.8623 H       
  32 H32            6.9973     5.0365    -4.8461 H       
  33 H33           11.5462     7.6577    -5.2689 H       
  34 H34           10.6480     7.1634    -6.7239 H       
  35 H35           10.3374     8.7517    -5.9830 H       
  36 H36            9.4402     7.6328    -3.9602 H       
  37 H37            8.5419     7.1384    -5.4152 H       
  38 H38           10.8113     5.5718    -4.1065 H       
  39 H39            9.9130     5.0775    -5.5615 H       
@<TRIPOS>BOND
   1    1    2 ar
   2    1    6 ar
   3    2    3 ar
   4    2   25 1
   5    3    4 ar
   6    4    5 ar
   7    4   19 1
   8    5    6 ar
   9    5    7 1
  10    6   23 1
  11    7    8 1
  12    7   26 1
  13    7   27 1
  14    8    9 1
  15    9   10 ar
  16    9   14 ar
  17   10   11 ar
  18   10   28 1
  19   11   12 ar
  20   11   15 1
  21   12   13 ar
  22   12   17 1
  23   13   14 ar
  24   13   29 1
  25   14   30 1
  26   15   16 1
  27   15   31 1
  28   15   32 1
  29   16   17 am
  30   16   22 1
  31   17   18 2
  32   20   21 1
  33   20   33 1
  34   20   34 1
  35   20   35 1
  36   21   22 1
  37   21   36 1
  38   21   37 1
  39   22   38 1
  40   22   39 1
  41   23   24 3

#	End of record

