#	Name: ASD09740164
#	Creating user name:	WinNT
#	Creation time:	15. 06. 2019 21:22

#	Modifying user name:	WinNT
#	Modification time:	15. 06. 2019 21:22

#	Program:	/corina/corina34_cracker 3.40 0067  02.08.2006

@<TRIPOS>MOLECULE
ASD09740164
  33   35    0    0    0
SMALL
NO_CHARGES


@<TRIPOS>ATOM
   1 C1            -0.0184     1.5028     0.0103 C.3     
   2 O2             0.0958    -6.2064     0.6768 O.3     
   3 N3             0.0850    -5.0435     1.0205 N.2     
   4 C4             0.0781    -6.2874    -0.6627 C.2     
   5 N5             0.0551    -5.0501    -1.1209 N.2     
   6 C6             0.0598    -4.2600    -0.0270 C.2     
   7 C7             0.0397    -2.7757    -0.0144 C.ar    
   8 C8             0.0834    -7.5257    -1.4702 C.ar    
   9 C9             0.0129    -2.0673    -1.2137 C.ar    
  10 C10            0.0413    -2.0876     1.1963 C.ar    
  11 C11            0.0230    -0.7026     1.2015 C.ar    
  12 C12            0.0021    -0.0041     0.0020 C.ar    
  13 C13           -0.0058    -0.6867    -1.1996 C.ar    
  14 C14            0.0694    -7.4637    -2.8644 C.ar    
  15 C15            0.1084    -8.7800    -0.8496 C.ar    
  16 C16            0.1128    -9.9084    -1.6510 C.ar    
  17 C17            0.0926    -9.7622    -3.0261 C.ar    
  18 N18            0.0741    -8.5665    -3.5838 N.ar    
  19 O19            0.0245    -0.0276     2.3810 O.3     
  20 C20            0.0455    -0.8102     3.5765 C.3     
  21 H21            1.0042     1.8801     0.0026 H       
  22 H22           -0.5455     1.8639    -0.8728 H       
  23 H23           -0.5286     1.8543     0.9071 H       
  24 H24            0.0071    -2.5979    -2.1544 H       
  25 H25            0.0568    -2.6324     2.1287 H       
  26 H26           -0.0220    -0.1388    -2.1302 H       
  27 H27            0.0542    -6.5029    -3.3575 H       
  28 H28            0.1242    -8.8651     0.2269 H       
  29 H29            0.1322   -10.8928    -1.2071 H       
  30 H30            0.0959   -10.6411    -3.6538 H       
  31 H31           -0.8358    -1.4509     3.6068 H       
  32 H32            0.9439    -1.4273     3.5910 H       
  33 H33            0.0444    -0.1495     4.4434 H       
@<TRIPOS>BOND
   1    1   12 1
   2    1   21 1
   3    1   22 1
   4    1   23 1
   5    2    3 1
   6    2    4 1
   7    3    6 2
   8    4    5 2
   9    4    8 1
  10    5    6 1
  11    6    7 1
  12    7    9 ar
  13    7   10 ar
  14    8   15 ar
  15    8   14 ar
  16    9   13 ar
  17    9   24 1
  18   10   11 ar
  19   10   25 1
  20   11   12 ar
  21   11   19 1
  22   12   13 ar
  23   13   26 1
  24   14   18 ar
  25   14   27 1
  26   15   16 ar
  27   15   28 1
  28   16   17 ar
  29   16   29 1
  30   17   18 ar
  31   17   30 1
  32   19   20 1
  33   20   31 1
  34   20   32 1
  35   20   33 1

#	End of record

