#	Name: ASD04590582
#	Creating user name:	WinNT
#	Creation time:	15. 06. 2019 20:51

#	Modifying user name:	WinNT
#	Modification time:	15. 06. 2019 20:51

#	Program:	/corina/corina34_cracker 3.40 0067  02.08.2006

@<TRIPOS>MOLECULE
ASD04590582
  35   36    0    0    0
SMALL
NO_CHARGES


@<TRIPOS>ATOM
   1 N1            -0.0158     1.3116     0.0093 N.ar    
   2 C2             0.0021    -0.0041     0.0020 C.ar    
   3 C3             1.2025    -0.6930    -0.0106 C.ar    
   4 C4             2.3839     0.0273    -0.0097 C.ar    
   5 C5             2.3228     1.4174     0.0002 C.ar    
   6 C6             3.6205     2.1829     0.0159 C.3     
   7 N7             3.3588     3.6029    -0.2442 N.am    
   8 C8             2.2235     4.2206     0.4608 C.3     
   9 C9             0.9435     3.5379    -0.0184 C.3     
  10 C10            1.0953     2.0388     0.0025 C.ar    
  11 C11            4.1264     4.3131    -1.0945 C.2     
  12 O12            3.8876     5.4880    -1.2918 O.2     
  13 O13            5.1578     3.7206    -1.7252 O.3     
  14 Cl14          -1.4943    -0.8842     0.0090 Cl      
  15 C15            5.9414     4.5464    -2.6266 C.3     
  16 C16            6.5514     5.7139    -1.8482 C.3     
  17 C17            7.0603     3.7060    -3.2453 C.3     
  18 C18            5.0384     5.0894    -3.7358 C.3     
  19 H19            1.2167    -1.7729    -0.0207 H       
  20 H20            3.3370    -0.4807    -0.0161 H       
  21 H21            4.0942     2.0740     0.9915 H       
  22 H22            4.2833     1.7891    -0.7546 H       
  23 H23            2.3363     4.0795     1.5357 H       
  24 H24            2.1818     5.2852     0.2306 H       
  25 H25            0.1187     3.8239     0.6344 H       
  26 H26            0.7236     3.8619    -1.0356 H       
  27 H27            7.1948     5.3271    -1.0580 H       
  28 H28            7.1396     6.3338    -2.5249 H       
  29 H29            5.7543     6.3126    -1.4074 H       
  30 H30            6.6258     2.8743    -3.7998 H       
  31 H31            7.6485     4.3259    -3.9220 H       
  32 H32            7.7037     3.3192    -2.4551 H       
  33 H33            4.2413     5.6880    -3.2950 H       
  34 H34            5.6266     5.7092    -4.4125 H       
  35 H35            4.6038     4.2576    -4.2903 H       
@<TRIPOS>BOND
   1    1    2 ar
   2    1   10 ar
   3    2    3 ar
   4    2   14 1
   5    3    4 ar
   6    3   19 1
   7    4    5 ar
   8    4   20 1
   9    5    6 1
  10    5   10 ar
  11    6    7 1
  12    6   21 1
  13    6   22 1
  14    7    8 1
  15    7   11 am
  16    8    9 1
  17    8   23 1
  18    8   24 1
  19    9   10 1
  20    9   25 1
  21    9   26 1
  22   11   12 2
  23   11   13 1
  24   13   15 1
  25   15   16 1
  26   15   18 1
  27   15   17 1
  28   16   27 1
  29   16   28 1
  30   16   29 1
  31   17   30 1
  32   17   31 1
  33   17   32 1
  34   18   33 1
  35   18   34 1
  36   18   35 1

#	End of record

