#	Name: ASD08170189
#	Creating user name:	WinNT
#	Creation time:	15. 06. 2019 21:17

#	Modifying user name:	WinNT
#	Modification time:	15. 06. 2019 21:17

#	Program:	/corina/corina34_cracker 3.40 0067  02.08.2006

@<TRIPOS>MOLECULE
ASD08170189
  67   72    0    0    0
SMALL
NO_CHARGES


@<TRIPOS>ATOM
   1 N1            -0.0150     1.2583     0.0090 N.2     
   2 N2             0.0021    -0.0041     0.0020 N.2     
   3 C3             1.1271     1.8769     0.0014 C.2     
   4 S4             2.3826     0.7116    -0.0169 S.3     
   5 C5             1.1681    -0.5677    -0.0121 C.2     
   6 C6             1.4387    -2.0502    -0.0227 C.3     
   7 C7             1.5165    -2.5442    -1.4687 C.3     
   8 S8             1.8422    -4.3286    -1.4814 S.3     
   9 C9             1.8986    -4.7206    -3.2516 C.3     
  10 C10            2.1699    -6.2152    -3.4347 C.3     
  11 C11            2.2167    -6.5408    -4.9053 C.2     
  12 N12            3.2694    -6.5184    -5.6596 N.2     
  13 S13            0.8491    -7.0282    -5.9071 S.3     
  14 C14            1.9000    -7.1354    -7.2557 C.2     
  15 N15            3.1017    -6.8250    -6.8728 N.2     
  16 N16            1.5289    -7.4992    -8.5457 N.am    
  17 C17            2.4537    -7.5464    -9.5250 C.2     
  18 O18            3.6096    -7.2716    -9.2812 O.2     
  19 C19            2.0516    -7.9407   -10.9228 C.3     
  20 N20            1.3017     3.2566     0.0067 N.am    
  21 C21            0.2284     4.0717     0.0214 C.2     
  22 O22           -0.8897     3.6019     0.0299 O.2     
  23 C23            0.4176     5.5667     0.0272 C.3     
  24 C24            1.1596     6.0209    -1.2506 C.3     
  25 C25            1.0210    -6.9379   -11.4901 C.3     
  26 C26            1.7156    -6.3261   -12.7448 C.3     
  27 C27            0.1581     6.9754    -1.9698 C.3     
  28 C28            0.1133     8.2461    -1.0672 C.3     
  29 C29           -0.6288     7.7919     0.2105 C.3     
  30 C30           -0.9623     6.2896    -0.0404 C.3     
  31 C31            3.2719    -7.8402   -11.8882 C.3     
  32 C32            2.7754    -8.4931   -13.2143 C.3     
  33 C33            1.7447    -7.4904   -13.7816 C.3     
  34 C34            3.2127    -6.3199   -12.2735 C.3     
  35 C35           -1.2078     6.3019    -1.5905 C.3     
  36 H36            2.3843    -2.2506     0.4811 H       
  37 H37            0.6334    -2.5702     0.4961 H       
  38 H38            0.5709    -2.3438    -1.9724 H       
  39 H39            2.3218    -2.0242    -1.9874 H       
  40 H40            0.9434    -4.4658    -3.7108 H       
  41 H41            2.6943    -4.1461    -3.7258 H       
  42 H42            3.1250    -6.4700    -2.9755 H       
  43 H43            1.3741    -6.7896    -2.9605 H       
  44 H44            0.6045    -7.7190    -8.7407 H       
  45 H45            1.6421    -8.9508   -10.9289 H       
  46 H46            2.1959     3.6323    -0.0001 H       
  47 H47            0.9674     5.8760     0.9161 H       
  48 H48            2.0732     6.5553    -0.9898 H       
  49 H49            1.3876     5.1629    -1.8829 H       
  50 H50            0.1055    -7.4554   -11.7770 H       
  51 H51            0.8051    -6.1598   -10.7579 H       
  52 H52            1.3077    -5.3804   -13.1017 H       
  53 H53            0.3438     7.1501    -3.0296 H       
  54 H54            1.1235     8.5749    -0.8234 H       
  55 H55           -0.4380     9.0451    -1.5630 H       
  56 H56            0.0167     7.8974     1.0825 H       
  57 H57           -1.5448     8.3676     0.3429 H       
  58 H58           -1.7525     5.8669     0.5801 H       
  59 H59            4.2193    -8.2132   -11.4990 H       
  60 H60            3.6052    -8.6194   -13.9097 H       
  61 H61            2.2998    -9.4525   -13.0106 H       
  62 H62            0.7624    -7.9568   -13.8568 H       
  63 H63            2.0678    -7.1237   -14.7558 H       
  64 H64            3.8964    -6.0774   -13.0870 H       
  65 H65            3.3667    -5.6730   -11.4098 H       
  66 H66           -2.0602     6.9236    -1.8645 H       
  67 H67           -1.2943     5.2949    -1.9987 H       
@<TRIPOS>BOND
   1    1    2 1
   2    1    3 2
   3    2    5 2
   4    3    4 1
   5    3   20 1
   6    4    5 1
   7    5    6 1
   8    6    7 1
   9    6   36 1
  10    6   37 1
  11    7    8 1
  12    7   38 1
  13    7   39 1
  14    8    9 1
  15    9   10 1
  16    9   40 1
  17    9   41 1
  18   10   11 1
  19   10   42 1
  20   10   43 1
  21   11   12 2
  22   11   13 1
  23   12   15 1
  24   13   14 1
  25   14   15 2
  26   14   16 1
  27   16   17 am
  28   16   44 1
  29   17   18 2
  30   17   19 1
  31   19   25 1
  32   19   31 1
  33   19   45 1
  34   20   21 am
  35   20   46 1
  36   21   22 2
  37   21   23 1
  38   23   24 1
  39   23   30 1
  40   23   47 1
  41   24   27 1
  42   24   48 1
  43   24   49 1
  44   25   26 1
  45   25   50 1
  46   25   51 1
  47   26   33 1
  48   26   34 1
  49   26   52 1
  50   27   28 1
  51   27   35 1
  52   27   53 1
  53   28   29 1
  54   28   54 1
  55   28   55 1
  56   29   30 1
  57   29   56 1
  58   29   57 1
  59   30   35 1
  60   30   58 1
  61   31   32 1
  62   31   34 1
  63   31   59 1
  64   32   33 1
  65   32   60 1
  66   32   61 1
  67   33   62 1
  68   33   63 1
  69   34   64 1
  70   34   65 1
  71   35   66 1
  72   35   67 1

#	End of record

