#	Name: ASD02030790
#	Creating user name:	WinNT
#	Creation time:	15. 06. 2019 20:16

#	Modifying user name:	WinNT
#	Modification time:	15. 06. 2019 20:16

#	Program:	/corina/corina34_cracker 3.40 0067  02.08.2006

@<TRIPOS>MOLECULE
ASD02030790
  83   86    0    0    0
SMALL
NO_CHARGES


@<TRIPOS>ATOM
   1 H1             0.6113    -0.3405     0.1490 H       
   2 C2             0.5156     0.7444     0.1933 C.3     
   3 C3            -0.2427     1.2664    -1.0511 C.3     
   4 C4             0.7604     2.1529    -1.8361 C.3     
   5 C5             2.1250     1.6168    -1.3845 C.3     
   6 H6             2.3422     0.6687    -1.8764 H       
   7 C7             3.2826     2.5836    -1.5368 C.3     
   8 H8             3.0950     3.4841    -0.9519 H       
   9 C9             3.5099     2.9386    -3.0082 C.3     
  10 C10            4.7512     3.7800    -3.1125 C.2     
  11 C11            5.7196     3.7344    -2.2441 C.2     
  12 C12            6.9199     4.6402    -2.4594 C.3     
  13 C13            8.1914     3.7913    -2.3735 C.3     
  14 O14            9.3378     4.6399    -2.4611 O.3     
  15 C15            8.2121     2.7852    -3.5260 C.3     
  16 C16            8.1894     3.5360    -4.8589 C.3     
  17 C17            8.2128     3.0410    -1.0405 C.3     
  18 C18            7.0391     2.0615    -0.9835 C.3     
  19 C19            5.7218     2.8408    -1.0363 C.3     
  20 C20            5.6283     3.7171     0.2144 C.3     
  21 C21            4.5483     1.8783    -1.0242 C.3     
  22 H22            4.7746     1.0421    -1.6857 H       
  23 C23            4.3189     1.3270     0.3598 C.2     
  24 O24            5.1401     1.5008     1.2280 O.2     
  25 C25            3.0439     0.5502     0.6544 C.3     
  26 C26            1.8939     1.3993     0.1356 C.3     
  27 C27            1.8607     2.7483     0.8566 C.3     
  28 C28           -0.2142     1.1588     1.4726 C.3     
  29 H29           -0.2459     2.2465     1.5367 H       
  30 C30            0.5274     0.5976     2.6874 C.3     
  31 C31           -1.6413     0.6077     1.4469 C.3     
  32 C32           -2.4097     1.1249     2.6647 C.3     
  33 C33           -3.8368     0.5738     2.6390 C.3     
  34 H34           -3.8051    -0.5138     2.5749 H       
  35 O35           -4.5295     1.0980     1.5044 O.3     
  36 C36           -4.5666     0.9882     3.9183 C.3     
  37 C37           -4.6110     2.5149     4.0084 C.3     
  38 C38           -5.9937     0.4371     3.8927 C.3     
  39 C39           -3.8249     0.4270     5.1332 C.3     
  40 H40           -0.5663     0.4296    -1.6701 H       
  41 H41           -1.1040     1.8591    -0.7428 H       
  42 H42            0.6314     2.0218    -2.9105 H       
  43 H43            0.6473     3.2009    -1.5586 H       
  44 H44            3.6370     2.0253    -3.5894 H       
  45 H45            2.6548     3.4995    -3.3855 H       
  46 H46            4.8439     4.4562    -3.9495 H       
  47 H47            6.8559     5.1053    -3.4432 H       
  48 H48            6.9407     5.4100    -1.6880 H       
  49 H49            9.3891     5.1482    -3.2822 H       
  50 H50            9.1173     2.1810    -3.4646 H       
  51 H51            7.3378     2.1377    -3.4588 H       
  52 H52            7.2843     4.1402    -4.9202 H       
  53 H53            9.0637     4.1835    -4.9261 H       
  54 H54            8.2041     2.8193    -5.6799 H       
  55 H55            9.1493     2.4909    -0.9487 H       
  56 H56            8.1299     3.7548    -0.2209 H       
  57 H57            7.0926     1.3803    -1.8327 H       
  58 H58            7.0867     1.4908    -0.0561 H       
  59 H59            4.5931     4.0218     0.3679 H       
  60 H60            5.9730     3.1521     1.0805 H       
  61 H61            6.2522     4.6015     0.0858 H       
  62 H62            3.0629    -0.4094     0.1378 H       
  63 H63            2.9398     0.3959     1.7284 H       
  64 H64            1.5361     2.6018     1.8868 H       
  65 H65            2.8576     3.1890     0.8490 H       
  66 H66            1.1648     3.4153     0.3478 H       
  67 H67           -0.0374     0.8202     3.5927 H       
  68 H68            0.6334    -0.4820     2.5816 H       
  69 H69            1.5147     1.0549     2.7535 H       
  70 H70           -2.1412     0.9359     0.5356 H       
  71 H71           -1.6107    -0.4815     1.4724 H       
  72 H72           -1.9098     0.7967     3.5760 H       
  73 H73           -2.4404     2.2142     2.6392 H       
  74 H74           -4.5959     2.0626     1.4952 H       
  75 H75           -5.1394     2.9147     3.1429 H       
  76 H76           -5.1309     2.8101     4.9198 H       
  77 H77           -3.5943     2.9075     4.0267 H       
  78 H78           -5.9620    -0.6505     3.8285 H       
  79 H79           -6.5136     0.7323     4.8041 H       
  80 H80           -6.5220     0.8369     3.0272 H       
  81 H81           -2.8082     0.8196     5.1515 H       
  82 H82           -4.3448     0.7222     6.0446 H       
  83 H83           -3.7933    -0.6606     5.0690 H       
@<TRIPOS>BOND
   1    1    2 1
   2    2   26 1
   3    2    3 1
   4    2   28 1
   5    3    4 1
   6    3   40 1
   7    3   41 1
   8    4    5 1
   9    4   42 1
  10    4   43 1
  11    5   26 1
  12    5    6 1
  13    5    7 1
  14    7   21 1
  15    7    8 1
  16    7    9 1
  17    9   10 1
  18    9   44 1
  19    9   45 1
  20   10   11 2
  21   10   46 1
  22   11   19 1
  23   11   12 1
  24   12   13 1
  25   12   47 1
  26   12   48 1
  27   13   14 1
  28   13   15 1
  29   13   17 1
  30   14   49 1
  31   15   16 1
  32   15   50 1
  33   15   51 1
  34   16   52 1
  35   16   53 1
  36   16   54 1
  37   17   18 1
  38   17   55 1
  39   17   56 1
  40   18   19 1
  41   18   57 1
  42   18   58 1
  43   19   20 1
  44   19   21 1
  45   20   59 1
  46   20   60 1
  47   20   61 1
  48   21   22 1
  49   21   23 1
  50   23   24 2
  51   23   25 1
  52   25   26 1
  53   25   62 1
  54   25   63 1
  55   26   27 1
  56   27   64 1
  57   27   65 1
  58   27   66 1
  59   28   29 1
  60   28   30 1
  61   28   31 1
  62   30   67 1
  63   30   68 1
  64   30   69 1
  65   31   32 1
  66   31   70 1
  67   31   71 1
  68   32   33 1
  69   32   72 1
  70   32   73 1
  71   33   34 1
  72   33   35 1
  73   33   36 1
  74   35   74 1
  75   36   37 1
  76   36   38 1
  77   36   39 1
  78   37   75 1
  79   37   76 1
  80   37   77 1
  81   38   78 1
  82   38   79 1
  83   38   80 1
  84   39   81 1
  85   39   82 1
  86   39   83 1

#	End of record

