#	Name: ASD01883641
#	Creating user name:	WinNT
#	Creation time:	15. 06. 2019 19:46

#	Modifying user name:	WinNT
#	Modification time:	15. 06. 2019 19:46

#	Program:	/corina/corina34_cracker 3.40 0067  02.08.2006

@<TRIPOS>MOLECULE
ASD01883641
  52   55    0    0    0
SMALL
NO_CHARGES


@<TRIPOS>ATOM
   1 C1            -0.0573     1.6690    -0.1039 C.3     
   2 C2            -0.1950     0.1443    -0.0468 C.3     
   3 C3             0.6876    -0.4845    -1.1274 C.3     
   4 C4             2.1515    -0.1217    -0.8676 C.3     
   5 C5             2.3159     1.4000    -0.9341 C.3     
   6 N6             1.3658     2.0195    -0.0001 N.pl3   
   7 C7             0.5286    -1.9827    -1.0965 C.ar    
   8 C8             0.0628    -2.6505    -2.2139 C.ar    
   9 C9            -0.0839    -4.0239    -2.1881 C.ar    
  10 C10            0.2367    -4.7331    -1.0397 C.ar    
  11 C11            0.7039    -4.0607     0.0802 C.ar    
  12 C12            0.8542    -2.6879     0.0475 C.ar    
  13 C13            1.8008     2.9111     0.9545 C.2     
  14 C14            1.6750     2.6134     2.3241 C.2     
  15 C15            2.1066     3.4977     3.2496 C.2     
  16 N16            2.6662     4.6819     2.8890 N.am    
  17 C17            2.8122     5.0213     1.5947 C.2     
  18 C18            2.3842     4.1332     0.5798 C.2     
  19 O19            0.0929    -6.0842    -1.0117 O.3     
  20 C20            0.4421    -6.7487     0.2043 C.3     
  21 O21            3.3169     6.0908     1.2972 O.2     
  22 C22            2.5378     4.4754    -0.8022 C.1     
  23 N23            2.6597     4.7469    -1.8985 N.1     
  24 C24            3.1192     5.6082     3.9296 C.3     
  25 C25            4.5793     5.3107     4.2767 C.3     
  26 C26            5.2761     6.2493     5.2639 C.3     
  27 C27            4.8847     4.8355     5.6987 C.3     
  28 H28           -0.4562     2.0367    -1.0493 H       
  29 H29           -0.6053     2.1167     0.7251 H       
  30 H30            0.1200    -0.2129     0.9336 H       
  31 H31           -1.2348    -0.1337    -0.2190 H       
  32 H32            0.3882    -0.1078    -2.1054 H       
  33 H33            2.4445    -0.4764     0.1205 H       
  34 H34            2.7819    -0.5890    -1.6241 H       
  35 H35            3.3337     1.6702    -0.6528 H       
  36 H36            2.1105     1.7458    -1.9472 H       
  37 H37           -0.1870    -2.0979    -3.1076 H       
  38 H38           -0.4481    -4.5451    -3.0612 H       
  39 H39            0.9541    -4.6106     0.9755 H       
  40 H40            1.2224    -2.1645     0.9174 H       
  41 H41            1.2331     1.6784     2.6352 H       
  42 H42            2.0045     3.2584     4.2978 H       
  43 H43            1.4913    -6.5611     0.4324 H       
  44 H44           -0.1794    -6.3711     1.0162 H       
  45 H45            0.2809    -7.8208     0.0917 H       
  46 H46            3.0334     6.6324     3.5667 H       
  47 H47            2.5018     5.4851     4.8194 H       
  48 H48            5.1799     4.8959     3.4672 H       
  49 H49            6.3351     6.4516     5.1041 H       
  50 H50            4.6943     7.0787     5.6661 H       
  51 H51            4.0454     4.7348     6.3868 H       
  52 H52            5.6862     4.1077     5.8248 H       
@<TRIPOS>BOND
   1    1    2 1
   2    1    6 1
   3    1   28 1
   4    1   29 1
   5    2    3 1
   6    2   30 1
   7    2   31 1
   8    3    4 1
   9    3    7 1
  10    3   32 1
  11    4    5 1
  12    4   33 1
  13    4   34 1
  14    5    6 1
  15    5   35 1
  16    5   36 1
  17    6   13 1
  18    7    8 ar
  19    7   12 ar
  20    8    9 ar
  21    8   37 1
  22    9   10 ar
  23    9   38 1
  24   10   11 ar
  25   10   19 1
  26   11   12 ar
  27   11   39 1
  28   12   40 1
  29   13   14 1
  30   13   18 2
  31   14   15 2
  32   14   41 1
  33   15   16 1
  34   15   42 1
  35   16   17 am
  36   16   24 1
  37   17   18 1
  38   17   21 2
  39   18   22 1
  40   19   20 1
  41   20   43 1
  42   20   44 1
  43   20   45 1
  44   22   23 3
  45   24   25 1
  46   24   46 1
  47   24   47 1
  48   25   26 1
  49   25   27 1
  50   25   48 1
  51   26   27 1
  52   26   49 1
  53   26   50 1
  54   27   51 1
  55   27   52 1

#	End of record

