#	Name: ASD01810435
#	Creating user name:	WinNT
#	Creation time:	15. 06. 2019 19:24

#	Modifying user name:	WinNT
#	Modification time:	15. 06. 2019 19:24

#	Program:	/corina/corina34_cracker 3.40 0067  02.08.2006

@<TRIPOS>MOLECULE
ASD01810435
  41   43    0    0    0
SMALL
NO_CHARGES


@<TRIPOS>ATOM
   1 C1            -0.0162     1.3444     0.0094 C.2     
   2 C2             0.0021    -0.0041     0.0020 C.2     
   3 N3             1.1262     2.0748     0.0024 N.pl3   
   4 C4             2.3433     1.5070    -0.0127 C.2     
   5 C5             2.4721     0.1323    -0.0214 C.2     
   6 C6             1.2462    -0.6815    -0.0135 C.2     
   7 O7             1.2996    -1.9011    -0.0202 O.2     
   8 C8             3.7997    -0.5019    -0.0375 C.2     
   9 C9             1.0293     3.5366     0.0113 C.3     
  10 C10            1.0097     4.0301     1.4350 C.ar    
  11 O11            4.8017     0.1860    -0.0434 O.2     
  12 O12            3.9046    -1.8456    -0.0458 O.3     
  13 C13            2.1974     4.3351     2.0750 C.ar    
  14 C14            2.1853     4.7875     3.3789 C.ar    
  15 C15            0.9737     4.9368     4.0505 C.ar    
  16 C16           -0.2197     4.6281     3.4010 C.ar    
  17 C17           -0.1963     4.1818     2.0952 C.ar    
  18 C18            0.9544     5.4223     5.4526 C.ar    
  19 C19           -0.2572     5.5716     6.1243 C.ar    
  20 C20           -0.2693     6.0236     7.4283 C.ar    
  21 C21            0.9184     6.3286     8.0683 C.ar    
  22 C22            2.1240     6.1828     7.4061 C.ar    
  23 C23            2.1483     5.7252     6.1042 C.ar    
  24 C24           -1.2882    -0.7826     0.0107 C.3     
  25 H25           -0.9670     1.8566     0.0167 H       
  26 H26            3.2261     2.1292    -0.0185 H       
  27 H27            1.8884     3.9608    -0.5085 H       
  28 H28            0.1124     3.8430    -0.4922 H       
  29 H29            4.7977    -2.2161    -0.0563 H       
  30 H30            3.1360     4.2187     1.5535 H       
  31 H31            3.1133     5.0251     3.8777 H       
  32 H32           -1.1617     4.7420     3.9170 H       
  33 H33           -1.1207     3.9422     1.5907 H       
  34 H34           -1.1852     5.3343     5.6253 H       
  35 H35           -1.2079     6.1397     7.9499 H       
  36 H36            0.9044     6.6824     9.0886 H       
  37 H37            3.0484     6.4227     7.9104 H       
  38 H38            3.0902     5.6113     5.5882 H       
  39 H39           -1.6095    -0.9648    -1.0148 H       
  40 H40           -1.1344    -1.7351     0.5179 H       
  41 H41           -2.0539    -0.2111     0.5353 H       
@<TRIPOS>BOND
   1    1    2 2
   2    1    3 1
   3    1   25 1
   4    2   24 1
   5    2    6 1
   6    3    4 1
   7    3    9 1
   8    4    5 2
   9    4   26 1
  10    5    6 1
  11    5    8 1
  12    6    7 2
  13    8   11 2
  14    8   12 1
  15    9   10 1
  16    9   27 1
  17    9   28 1
  18   10   13 ar
  19   10   17 ar
  20   12   29 1
  21   13   14 ar
  22   13   30 1
  23   14   15 ar
  24   14   31 1
  25   15   16 ar
  26   15   18 1
  27   16   17 ar
  28   16   32 1
  29   17   33 1
  30   18   19 ar
  31   18   23 ar
  32   19   20 ar
  33   19   34 1
  34   20   21 ar
  35   20   35 1
  36   21   22 ar
  37   21   36 1
  38   22   23 ar
  39   22   37 1
  40   23   38 1
  41   24   39 1
  42   24   40 1
  43   24   41 1

#	End of record

