#	Name: ASD02500101
#	Creating user name:	WinNT
#	Creation time:	15. 06. 2019 20:22

#	Modifying user name:	WinNT
#	Modification time:	15. 06. 2019 20:22

#	Program:	/corina/corina34_cracker 3.40 0067  02.08.2006

@<TRIPOS>MOLECULE
ASD02500101
  61   65    0    0    0
SMALL
NO_CHARGES


@<TRIPOS>ATOM
   1 N1            -3.3550     5.6285    -0.0662 N.ar    
   2 C2            -4.4663     6.2910    -0.2766 C.ar    
   3 C3            -5.5870     6.1192     0.5333 C.ar    
   4 C4            -5.5445     5.2411     1.5785 C.ar    
   5 C5            -4.3495     4.5310     1.8012 C.ar    
   6 C6            -4.2307     3.6121     2.8559 C.ar    
   7 C7            -3.0576     2.9452     3.0385 C.ar    
   8 C8            -1.9724     3.1629     2.1924 C.ar    
   9 C9            -2.0528     4.0464     1.1602 C.ar    
  10 C10           -3.2470     4.7541     0.9393 C.ar    
  11 S11           -0.6648     4.3030     0.1056 S.o2    
  12 O12           -0.4739     5.7090     0.0284 O.2     
  13 O13            0.3447     3.4046     0.5452 O.2     
  14 N14           -1.1038     3.8067    -1.4120 N.am    
  15 C15           -1.3432     2.4583    -1.6612 C.ar    
  16 C16           -1.0338     1.9155    -2.9076 C.ar    
  17 C17           -1.2698     0.5813    -3.1563 C.ar    
  18 C18           -1.8201    -0.2275    -2.1569 C.ar    
  19 C19           -2.1286     0.3207    -0.9092 C.ar    
  20 C20           -1.8852     1.6537    -0.6644 C.ar    
  21 C21           -2.0748    -1.6566    -2.4196 C.2     
  22 O22           -1.8394    -2.4841    -1.5603 O.2     
  23 N23           -2.5684    -2.0450    -3.6121 N.am    
  24 C24           -2.9153    -3.4521    -3.8634 C.3     
  25 C25           -4.3419    -3.5099    -4.4199 C.3     
  26 N26           -4.4441    -2.6266    -5.5891 N.3     
  27 C27           -4.2067    -1.2246    -5.2203 C.3     
  28 C28           -2.7803    -1.0721    -4.6945 C.3     
  29 C29           -5.6764    -2.7747    -6.2202 C.ar    
  30 C30           -5.9677    -2.0181    -7.3566 C.ar    
  31 C31           -7.1993    -2.1781    -7.9733 C.ar    
  32 C32           -8.0972    -3.0892    -7.4321 C.ar    
  33 C33           -7.7411    -3.8029    -6.3063 C.ar    
  34 N34           -6.5595    -3.6352    -5.7413 N.ar    
  35 O35           -5.0573    -1.1370    -7.8513 O.3     
  36 C36           -5.4334    -0.4017    -9.0174 C.3     
  37 F37           -0.5027     2.6985    -3.8720 F       
  38 H38           -4.5145     6.9888    -1.0995 H       
  39 H39           -6.4883     6.6802     0.3350 H       
  40 H40           -6.4036     5.0958     2.2166 H       
  41 H41           -5.0648     3.4354     3.5189 H       
  42 H42           -2.9672     2.2385     3.8502 H       
  43 H43           -1.0525     2.6221     2.3585 H       
  44 H44           -1.1942     4.4556    -2.1273 H       
  45 H45           -1.0306     0.1606    -4.1218 H       
  46 H46           -2.5536    -0.3018    -0.1357 H       
  47 H47           -2.1194     2.0760     0.3016 H       
  48 H48           -2.2216    -3.8762    -4.5894 H       
  49 H49           -2.8629    -4.0143    -2.9310 H       
  50 H50           -4.5760    -4.5327    -4.7151 H       
  51 H51           -5.0447    -3.1821    -3.6539 H       
  52 H52           -4.3428    -0.5900    -6.0960 H       
  53 H53           -4.9114    -0.9286    -4.4431 H       
  54 H54           -2.6387    -0.0615    -4.3114 H       
  55 H55           -2.0734    -1.2630    -5.5020 H       
  56 H56           -7.4546    -1.6071    -8.8538 H       
  57 H57           -9.0649    -3.2374    -7.8881 H       
  58 H58           -8.4375    -4.5117    -5.8833 H       
  59 H59           -4.6192     0.2631    -9.3061 H       
  60 H60           -5.6428    -1.0948    -9.8322 H       
  61 H61           -6.3251     0.1876    -8.8035 H       
@<TRIPOS>BOND
   1    1    2 ar
   2    1   10 ar
   3    2    3 ar
   4    2   38 1
   5    3    4 ar
   6    3   39 1
   7    4    5 ar
   8    4   40 1
   9    5    6 ar
  10    5   10 ar
  11    6    7 ar
  12    6   41 1
  13    7    8 ar
  14    7   42 1
  15    8    9 ar
  16    8   43 1
  17    9   10 ar
  18    9   11 1
  19   11   12 2
  20   11   13 2
  21   11   14 am
  22   14   15 1
  23   14   44 1
  24   15   16 ar
  25   15   20 ar
  26   16   17 ar
  27   16   37 1
  28   17   18 ar
  29   17   45 1
  30   18   19 ar
  31   18   21 1
  32   19   20 ar
  33   19   46 1
  34   20   47 1
  35   21   22 2
  36   21   23 am
  37   23   24 1
  38   23   28 1
  39   24   25 1
  40   24   48 1
  41   24   49 1
  42   25   26 1
  43   25   50 1
  44   25   51 1
  45   26   27 1
  46   26   29 1
  47   27   28 1
  48   27   52 1
  49   27   53 1
  50   28   54 1
  51   28   55 1
  52   29   30 ar
  53   29   34 ar
  54   30   31 ar
  55   30   35 1
  56   31   32 ar
  57   31   56 1
  58   32   33 ar
  59   32   57 1
  60   33   34 ar
  61   33   58 1
  62   35   36 1
  63   36   59 1
  64   36   60 1
  65   36   61 1

#	End of record

