#	Name: ASD01208715
#	Creating user name:	WinNT
#	Creation time:	15. 06. 2019 19:10

#	Modifying user name:	WinNT
#	Modification time:	15. 06. 2019 19:10

#	Program:	/corina/corina34_cracker 3.40 0067  02.08.2006

@<TRIPOS>MOLECULE
ASD01208715
  61   64    0    0    0
SMALL
NO_CHARGES


@<TRIPOS>ATOM
   1 C1             0.0274     1.4677     0.2142 C.2     
   2 C2             0.0132    -0.0081     0.1319 C.ar    
   3 C3            -1.2008    -0.6953     0.0967 C.ar    
   4 C4            -1.2095    -2.0783     0.0196 C.ar    
   5 C5            -0.0130    -2.7803    -0.0221 C.ar    
   6 C6             1.1958    -2.1011     0.0127 C.ar    
   7 C7             1.2136    -0.7177     0.0835 C.ar    
   8 O8             1.0860     2.0646     0.2448 O.2     
   9 N9            -1.1332     2.1519     0.2497 N.am    
  10 S10           -2.5119     4.5299     0.3792 S.3     
  11 C11           -1.1199     3.5386     0.3271 C.2     
  12 N12           -0.0501     4.2697     0.3707 N.2     
  13 C13           -0.2220     5.5763     0.4435 C.2     
  14 C14           -1.4975     5.9679     0.4623 C.2     
  15 O15            2.3646    -2.7935    -0.0279 O.3     
  16 C16            4.6681    -2.8790    -0.7539 C.3     
  17 C17            3.5689    -2.0290    -0.1134 C.3     
  18 C18            4.0048    -1.6053     1.2906 C.3     
  19 O19            4.9791    -3.9797     0.1026 O.3     
  20 C20            5.9999    -4.8411    -0.4053 C.3     
  21 O21           -2.3911    -2.7485    -0.0147 O.3     
  22 C22           -3.1771    -2.5993    -1.1122 C.ar    
  23 C23           -2.7095    -1.8835    -2.2071 C.ar    
  24 C24           -3.5041    -1.7299    -3.3225 C.ar    
  25 C25           -4.7805    -2.2953    -3.3514 C.ar    
  26 C26           -5.2467    -3.0145    -2.2491 C.ar    
  27 C27           -4.4443    -3.1678    -1.1392 C.ar    
  28 O28           -6.8814    -2.6216    -4.7094 O.3     
  29 C29           -5.6359    -2.1326    -4.5453 C.2     
  30 N30           -5.3248    -1.4844    -5.6437 N.2     
  31 N31           -6.3100    -1.5504    -6.4686 N.2     
  32 C32           -7.2806    -2.2371    -5.9345 C.2     
  33 C33           -8.6101    -2.5442    -6.5741 C.3     
  34 C34           -9.3351    -1.2361    -6.8967 C.3     
  35 C35           -8.3847    -3.3341    -7.8649 C.3     
  36 H36           -2.1322    -0.1497     0.1299 H       
  37 H37           -0.0233    -3.8587    -0.0814 H       
  38 H38            2.1553    -0.1894     0.1057 H       
  39 H39           -1.9779     1.6758     0.2213 H       
  40 H40            0.6029     6.2721     0.4845 H       
  41 H41           -1.8470     6.9883     0.5186 H       
  42 H42            4.3224    -3.2544    -1.7171 H       
  43 H43            5.5598    -2.2694    -0.9005 H       
  44 H44            3.3939    -1.1423    -0.7226 H       
  45 H45            3.2217    -0.9998     1.7469 H       
  46 H46            4.1798    -2.4921     1.8998 H       
  47 H47            4.9234    -1.0222     1.2254 H       
  48 H48            6.9192    -4.2722    -0.5446 H       
  49 H49            6.1774    -5.6508     0.3024 H       
  50 H50            5.6818    -5.2572    -1.3612 H       
  51 H51           -1.7222    -1.4465    -2.1840 H       
  52 H52           -3.1402    -1.1727    -4.1731 H       
  53 H53           -6.2335    -3.4529    -2.2677 H       
  54 H54           -4.8028    -3.7271    -0.2877 H       
  55 H55           -9.2158    -3.1355    -5.8874 H       
  56 H56           -8.7295    -0.6448    -7.5835 H       
  57 H57          -10.2968    -1.4582    -7.3594 H       
  58 H58           -9.4957    -0.6733    -5.9771 H       
  59 H59           -7.7790    -2.7428    -8.5517 H       
  60 H60           -7.8682    -4.2660    -7.6351 H       
  61 H61           -9.3463    -3.5562    -8.3276 H       
@<TRIPOS>BOND
   1    1    2 1
   2    1    8 2
   3    1    9 am
   4    2    3 ar
   5    2    7 ar
   6    3    4 ar
   7    3   36 1
   8    4    5 ar
   9    4   21 1
  10    5    6 ar
  11    5   37 1
  12    6    7 ar
  13    6   15 1
  14    7   38 1
  15    9   11 1
  16    9   39 1
  17   10   11 1
  18   10   14 1
  19   11   12 2
  20   12   13 1
  21   13   14 2
  22   13   40 1
  23   14   41 1
  24   15   17 1
  25   16   17 1
  26   16   19 1
  27   16   42 1
  28   16   43 1
  29   17   18 1
  30   17   44 1
  31   18   45 1
  32   18   46 1
  33   18   47 1
  34   19   20 1
  35   20   48 1
  36   20   49 1
  37   20   50 1
  38   21   22 1
  39   22   23 ar
  40   22   27 ar
  41   23   24 ar
  42   23   51 1
  43   24   25 ar
  44   24   52 1
  45   25   26 ar
  46   25   29 1
  47   26   27 ar
  48   26   53 1
  49   27   54 1
  50   28   29 1
  51   28   32 1
  52   29   30 2
  53   30   31 1
  54   31   32 2
  55   32   33 1
  56   33   34 1
  57   33   35 1
  58   33   55 1
  59   34   56 1
  60   34   57 1
  61   34   58 1
  62   35   59 1
  63   35   60 1
  64   35   61 1

#	End of record

