#	Name: ASD03110037
#	Creating user name:	WinNT
#	Creation time:	15. 06. 2019 20:33

#	Modifying user name:	WinNT
#	Modification time:	15. 06. 2019 20:33

#	Program:	/corina/corina34_cracker 3.40 0067  02.08.2006

@<TRIPOS>MOLECULE
ASD03110037
  81   85    0    0    0
SMALL
NO_CHARGES


@<TRIPOS>ATOM
   1 O1            -0.1682     0.2509    -0.2177 O.3     
   2 O2             5.2880    10.2278    -2.2579 O.3     
   3 O3             5.5638     8.1869    -3.0593 O.2     
   4 C4             3.3990     5.7625    -0.5484 C.3     
   5 C5             3.7140     4.3348    -0.9577 C.3     
   6 C6             2.4981     3.4260    -1.1478 C.3     
   7 C7             4.6970     6.4608    -0.1155 C.3     
   8 C8             1.6119     3.5435     0.0849 C.3     
   9 C9             2.3594     5.8471     0.5616 C.3     
  10 C10            5.7885     6.2329    -1.1132 C.2     
  11 C11            1.1303     4.9872     0.2256 C.3     
  12 C12            0.4942     2.5325     0.1965 C.3     
  13 C13            7.0257     7.1150    -1.1389 C.3     
  14 C14            4.6041     4.3311    -2.1989 C.3     
  15 C15            4.4591     7.9327     0.1793 C.3     
  16 C16            3.0058     1.9771    -1.2533 C.3     
  17 C17            6.6005     8.5709    -0.9734 C.3     
  18 C18            2.8625     6.5470    -1.7611 C.3     
  19 C19            5.7652     8.7172     0.2937 C.3     
  20 C20            0.9734     1.1077    -0.0828 C.3     
  21 C21            5.7450     5.2883    -2.0174 C.2     
  22 C22            1.7515     3.7547    -2.4359 C.3     
  23 C23            1.8175     1.0240    -1.3485 C.3     
  24 C24            5.1474     5.8079     1.2031 C.3     
  25 C25            7.9859     6.6950    -0.0337 C.3     
  26 C26            7.8239     9.4844    -0.9127 C.3     
  27 C27            9.2158     7.6018     0.0076 C.3     
  28 C28           -0.0151     2.5376     1.6601 C.3     
  29 C29           -0.7010     2.8678    -0.6947 C.3     
  30 C30            8.7821     9.0547     0.1901 C.3     
  31 C31            5.7787     8.9812    -2.1745 C.2     
  32 C32           10.0849     7.1931     1.2072 C.3     
  33 C33           10.0366     7.4439    -1.2707 C.3     
  34 H34            4.3075     3.8595    -0.1446 H       
  35 H35            2.2839     3.3631     0.9630 H       
  36 H36            2.7439     5.4970     1.5163 H       
  37 H37            2.0296     6.8844     0.6760 H       
  38 H38            0.6587     5.3480    -0.6771 H       
  39 H39            0.4229     5.0721     1.0531 H       
  40 H40            7.5136     6.9950    -2.1169 H       
  41 H41            5.0169     3.3241    -2.3406 H       
  42 H42            4.0561     4.6012    -3.0973 H       
  43 H43            3.8097     8.4192    -0.5387 H       
  44 H44            3.9451     8.0054     1.1580 H       
  45 H45            3.6219     1.8833    -2.1475 H       
  46 H46            3.5981     1.7422    -0.3708 H       
  47 H47            1.9710     6.0533    -2.1478 H       
  48 H48            2.6115     7.5625    -1.4548 H       
  49 H49            3.6256     6.5803    -2.5388 H       
  50 H50            5.5302     9.7765     0.4434 H       
  51 H51            6.3349     8.3682     1.1541 H       
  52 H52            1.5679     0.7617     0.7694 H       
  53 H53            6.5953     5.1953    -2.6812 H       
  54 H54            2.4655     3.8608    -3.2526 H       
  55 H55            1.0528     2.9504    -2.6662 H       
  56 H56            1.2026     4.6878    -2.3096 H       
  57 H57            1.2137     1.2344    -2.2261 H       
  58 H58            2.2005    -0.0023    -1.4468 H       
  59 H59            5.4322     4.7723     1.0170 H       
  60 H60            6.0013     6.3529     1.6054 H       
  61 H61            4.3276     5.8358     1.9209 H       
  62 H62            7.4950     6.7580     0.9395 H       
  63 H63            8.3054     5.6637    -0.1973 H       
  64 H64            8.3271     9.4821    -1.8789 H       
  65 H65            7.4829    10.5071    -0.7111 H       
  66 H66           -0.4134     2.7667    -1.7413 H       
  67 H67           -1.5209     2.1838    -0.4755 H       
  68 H68           -1.0211     3.8919    -0.5031 H       
  69 H69           -0.3817     3.5323     1.9137 H       
  70 H70           -0.8238     1.8145     1.7659 H       
  71 H71            0.8019     2.2697     2.3300 H       
  72 H72            9.6667     9.6982     0.1722 H       
  73 H73            8.2945     9.1673     1.1618 H       
  74 H74            9.4247     7.7146    -2.1312 H       
  75 H75           10.9087     8.0962    -1.2255 H       
  76 H76           10.3623     6.4082    -1.3678 H       
  77 H77           10.3933     6.1537     1.0950 H       
  78 H78           10.9674     7.8313     1.2507 H       
  79 H79            9.5103     7.3044     2.1268 H       
  80 H80            0.0528    -0.6734    -0.3968 H       
  81 H81            4.7687    10.4435    -3.0445 H       
@<TRIPOS>BOND
   1    1   80 1
   2    1   20 1
   3    2   31 1
   4    2   81 1
   5    3   31 2
   6    4    5 1
   7    4    9 1
   8    4   18 1
   9    4    7 1
  10    5    6 1
  11    5   14 1
  12    5   34 1
  13    6    8 1
  14    6   16 1
  15    6   22 1
  16    7   10 1
  17    7   15 1
  18    7   24 1
  19    8   11 1
  20    8   12 1
  21    8   35 1
  22    9   11 1
  23    9   36 1
  24    9   37 1
  25   10   13 1
  26   10   21 2
  27   11   38 1
  28   11   39 1
  29   12   20 1
  30   12   28 1
  31   12   29 1
  32   13   17 1
  33   13   25 1
  34   13   40 1
  35   14   21 1
  36   14   41 1
  37   14   42 1
  38   15   19 1
  39   15   43 1
  40   15   44 1
  41   16   23 1
  42   16   45 1
  43   16   46 1
  44   17   19 1
  45   17   26 1
  46   17   31 1
  47   18   47 1
  48   18   48 1
  49   18   49 1
  50   19   50 1
  51   19   51 1
  52   20   23 1
  53   20   52 1
  54   21   53 1
  55   22   54 1
  56   22   55 1
  57   22   56 1
  58   23   57 1
  59   23   58 1
  60   24   59 1
  61   24   60 1
  62   24   61 1
  63   25   27 1
  64   25   62 1
  65   25   63 1
  66   26   30 1
  67   26   64 1
  68   26   65 1
  69   27   30 1
  70   27   32 1
  71   27   33 1
  72   28   69 1
  73   28   70 1
  74   28   71 1
  75   29   66 1
  76   29   67 1
  77   29   68 1
  78   30   72 1
  79   30   73 1
  80   32   77 1
  81   32   78 1
  82   32   79 1
  83   33   74 1
  84   33   75 1
  85   33   76 1

#	End of record

