#	Name: ASD02038637
#	Creating user name:	WinNT
#	Creation time:	15. 06. 2019 20:17

#	Modifying user name:	WinNT
#	Modification time:	15. 06. 2019 20:17

#	Program:	/corina/corina34_cracker 3.40 0067  02.08.2006

@<TRIPOS>MOLECULE
ASD02038637
  42   43    0    0    0
SMALL
NO_CHARGES


@<TRIPOS>ATOM
   1 C1            -0.0167     1.3828     0.0096 C.ar    
   2 C2             0.0021    -0.0041     0.0020 C.ar    
   3 O3            -1.1662    -0.6999     0.0090 O.3     
   4 C4            -1.0721    -2.1258     0.0005 C.3     
   5 C5            -2.4778    -2.7298     0.0102 C.3     
   6 C6            -2.3803    -4.2507    -0.1246 C.3     
   7 N7            -3.7300    -4.8199    -0.2357 N.3     
   8 C8            -3.6755    -6.2821    -0.3670 C.3     
   9 C9            -5.0967    -6.8373    -0.4799 C.3     
  10 C10           -5.0409    -8.3372    -0.6146 C.ar    
  11 C11            1.1700     2.0896     0.0021 C.ar    
  12 C12            2.3804     1.4126    -0.0136 C.ar    
  13 C13            2.3992     0.0257    -0.0213 C.ar    
  14 C14            1.2125    -0.6811    -0.0132 C.ar    
  15 O15            3.5486     2.1084    -0.0219 O.3     
  16 O16           -3.1289    -2.4012     1.2391 O.3     
  17 C17           -5.0673    -9.1336     0.5149 C.ar    
  18 C18           -5.0166   -10.5097     0.3927 C.ar    
  19 C19           -4.9393   -11.0903    -0.8602 C.ar    
  20 C20           -4.9128   -10.2924    -1.9918 C.ar    
  21 C21           -4.9689    -8.9160    -1.8680 C.ar    
  22 Cl22          -4.8158   -11.0196    -3.5652 Cl      
  23 Cl23          -4.8750   -12.8182    -1.0142 Cl      
  24 H24           -0.9593     1.9100     0.0170 H       
  25 H25           -0.5436    -2.4497    -0.8961 H       
  26 H26           -0.5272    -2.4593     0.8837 H       
  27 H27           -3.0520    -2.3271    -0.8242 H       
  28 H28           -1.8062    -4.5003    -1.0169 H       
  29 H29           -1.8836    -4.6623     0.7540 H       
  30 H30           -4.3026    -4.5485     0.5495 H       
  31 H31           -3.1103    -6.5458    -1.2609 H       
  32 H32           -3.1878    -6.7077     0.5100 H       
  33 H33           -5.6619    -6.5735     0.4141 H       
  34 H34           -5.5845    -6.4116    -1.3568 H       
  35 H35            1.1553     3.1695     0.0081 H       
  36 H36            3.3417    -0.5015    -0.0335 H       
  37 H37            1.2271    -1.7610    -0.0192 H       
  38 H38            3.8955     2.3052     0.8590 H       
  39 H39           -2.6722    -2.7288     2.0260 H       
  40 H40           -5.1273    -8.6805     1.4934 H       
  41 H41           -5.0369   -11.1314     1.2756 H       
  42 H42           -4.9483    -8.2932    -2.7500 H       
@<TRIPOS>BOND
   1    1    2 ar
   2    1   11 ar
   3    1   24 1
   4    2    3 1
   5    2   14 ar
   6    3    4 1
   7    4    5 1
   8    4   25 1
   9    4   26 1
  10    5    6 1
  11    5   16 1
  12    5   27 1
  13    6    7 1
  14    6   28 1
  15    6   29 1
  16    7    8 1
  17    7   30 1
  18    8    9 1
  19    8   31 1
  20    8   32 1
  21    9   10 1
  22    9   33 1
  23    9   34 1
  24   10   17 ar
  25   10   21 ar
  26   11   12 ar
  27   11   35 1
  28   12   13 ar
  29   12   15 1
  30   13   14 ar
  31   13   36 1
  32   14   37 1
  33   15   38 1
  34   16   39 1
  35   17   18 ar
  36   17   40 1
  37   18   19 ar
  38   18   41 1
  39   19   20 ar
  40   19   23 1
  41   20   21 ar
  42   20   22 1
  43   21   42 1

#	End of record

