#	Name: ASD01912326
#	Creating user name:	WinNT
#	Creation time:	15. 06. 2019 19:59

#	Modifying user name:	WinNT
#	Modification time:	15. 06. 2019 19:59

#	Program:	/corina/corina34_cracker 3.40 0067  02.08.2006

@<TRIPOS>MOLECULE
ASD01912326
  47   49    0    0    0
SMALL
NO_CHARGES


@<TRIPOS>ATOM
   1 C1             4.7928    -3.2462     0.8450 C.ar    
   2 C2             3.5782    -2.5912     0.9207 C.ar    
   3 C3             2.6142    -2.8288    -0.0645 C.ar    
   4 C4             2.9243    -3.7249    -1.0897 C.ar    
   5 C5             4.1684    -4.3407    -1.0912 C.ar    
   6 N6             5.0502    -4.0867    -0.1393 N.ar    
   7 C7             1.2988    -2.1482    -0.0214 C.2     
   8 O8             1.2434    -0.9403     0.0991 O.2     
   9 N9             0.1638    -2.8688    -0.1157 N.am    
  10 C10            0.2211    -4.3183    -0.3446 C.3     
  11 C11           -0.5165    -5.0281     0.7978 C.3     
  12 C12           -1.8670    -4.3701     0.9767 C.2     
  13 C13           -1.9172    -2.8692     1.1607 C.3     
  14 C14           -1.1444    -2.2145     0.0152 C.3     
  15 C15           -2.9851    -5.0947     0.9719 C.2     
  16 C16           -4.2543    -4.4540     1.1428 C.1     
  17 C17           -5.2948    -3.9288     1.2828 C.1     
  18 C18           -6.5641    -3.2881     1.4536 C.ar    
  19 C19           -7.7341    -4.0531     1.4478 C.ar    
  20 C20           -8.9515    -3.4188     1.6141 C.ar    
  21 C21           -8.9642    -2.0401     1.7811 C.ar    
  22 C22           -7.7694    -1.3438     1.7768 C.ar    
  23 N23           -6.6211    -1.9701     1.6222 N.ar    
  24 C24           -7.7810     0.1523     1.9579 C.3     
  25 O25            4.4832    -5.2136    -2.0811 O.3     
  26 C26            5.7783    -5.8151    -2.0281 C.3     
  27 Cl27           5.9996    -2.9539     2.0581 Cl      
  28 H28            3.3759    -1.9053     1.7300 H       
  29 H29            2.2072    -3.9358    -1.8692 H       
  30 H30           -0.2586    -4.5576    -1.2937 H       
  31 H31            1.2611    -4.6439    -0.3662 H       
  32 H32           -0.6511    -6.0809     0.5495 H       
  33 H33            0.0602    -4.9386     1.7184 H       
  34 H34           -2.9537    -2.5322     1.1460 H       
  35 H35           -1.4569    -2.6005     2.1115 H       
  36 H36           -1.0033    -1.1553     0.2306 H       
  37 H37           -1.7049    -2.3293    -0.9125 H       
  38 H38           -2.9341    -6.1653     0.8392 H       
  39 H39           -7.6879    -5.1239     1.3151 H       
  40 H40           -9.8723    -3.9831     1.6137 H       
  41 H41           -9.8993    -1.5162     1.9128 H       
  42 H42           -7.7087     0.3904     3.0191 H       
  43 H43           -6.9337     0.5889     1.4290 H       
  44 H44           -8.7089     0.5597     1.5565 H       
  45 H45            6.5417    -5.0382    -2.0690 H       
  46 H46            5.8805    -6.3764    -1.0993 H       
  47 H47            5.9006    -6.4897    -2.8755 H       
@<TRIPOS>BOND
   1    1    2 ar
   2    1    6 ar
   3    1   27 1
   4    2    3 ar
   5    2   28 1
   6    3    4 ar
   7    3    7 1
   8    4    5 ar
   9    4   29 1
  10    5    6 ar
  11    5   25 1
  12    7    8 2
  13    7    9 am
  14    9   10 1
  15    9   14 1
  16   10   11 1
  17   10   30 1
  18   10   31 1
  19   11   12 1
  20   11   32 1
  21   11   33 1
  22   12   13 1
  23   12   15 2
  24   13   14 1
  25   13   34 1
  26   13   35 1
  27   14   36 1
  28   14   37 1
  29   15   16 1
  30   15   38 1
  31   16   17 3
  32   17   18 1
  33   18   19 ar
  34   18   23 ar
  35   19   20 ar
  36   19   39 1
  37   20   21 ar
  38   20   40 1
  39   21   22 ar
  40   21   41 1
  41   22   23 ar
  42   22   24 1
  43   24   42 1
  44   24   43 1
  45   24   44 1
  46   25   26 1
  47   26   45 1
  48   26   46 1
  49   26   47 1

#	End of record

