#	Name: ASD01350001
#	Creating user name:	WinNT
#	Creation time:	15. 06. 2019 19:16

#	Modifying user name:	WinNT
#	Modification time:	15. 06. 2019 19:16

#	Program:	/corina/corina34_cracker 3.40 0067  02.08.2006

@<TRIPOS>MOLECULE
ASD01350001
  61   64    0    0    0
SMALL
NO_CHARGES


@<TRIPOS>ATOM
   1 C1            -0.0136     1.4707    -0.0788 C.3     
   2 C2             0.0571    -0.0524     0.0483 C.3     
   3 C3             1.4034     2.0422    -0.1586 C.3     
   4 C4             1.3350     3.5454    -0.2395 C.ar    
   5 C5             2.1773     1.6399     1.0703 C.ar    
   6 C6            -1.3602    -0.6268     0.0930 C.3     
   7 N7            -1.2924    -2.0891     0.2150 N.3     
   8 C8            -2.6172    -2.6557     0.4982 C.3     
   9 C9            -2.4855    -4.1573     0.7622 C.3     
  10 C10           -1.8721    -4.8347    -0.4664 C.3     
  11 C11           -0.5149    -4.1935    -0.7687 C.3     
  12 C12           -0.7037    -2.6908    -0.9883 C.3     
  13 C13            1.7027     1.9720     2.3255 C.ar    
  14 C14            2.4125     1.6030     3.4528 C.ar    
  15 C15            3.5968     0.9016     3.3250 C.ar    
  16 C16            4.0710     0.5687     2.0699 C.ar    
  17 C17            3.3589     0.9339     0.9427 C.ar    
  18 C18            2.4995     4.2897    -0.2691 C.ar    
  19 C19            2.4368     5.6686    -0.3432 C.ar    
  20 C20            1.2095     6.3033    -0.3882 C.ar    
  21 C21            0.0451     5.5589    -0.3595 C.ar    
  22 C22            0.1079     4.1798    -0.2897 C.ar    
  23 C23           -1.6845    -6.3042    -0.1901 C.ar    
  24 O24           -2.7407    -4.6656    -1.5884 O.3     
  25 C25           -1.7520    -7.2163    -1.2268 C.ar    
  26 C26           -1.5800    -8.5642    -0.9741 C.ar    
  27 C27           -1.3402    -9.0006     0.3167 C.ar    
  28 C28           -1.2727    -8.0873     1.3538 C.ar    
  29 C29           -1.4393    -6.7391     1.0990 C.ar    
  30 Cl30          -1.1247   -10.6935     0.6351 Cl      
  31 C31            2.0777     1.5165    -1.3569 C.1     
  32 N32            2.5980     1.1108    -2.2817 N.1     
  33 H33           -0.5633     1.7348    -0.9822 H       
  34 H34           -0.5238     1.8845     0.7910 H       
  35 H35            0.5891    -0.4642    -0.8094 H       
  36 H36            0.5853    -0.3164     0.9645 H       
  37 H37           -1.8922    -0.2150     0.9507 H       
  38 H38           -1.8884    -0.3627    -0.8232 H       
  39 H39           -3.0404    -2.1682     1.3765 H       
  40 H40           -3.2721    -2.4935    -0.3579 H       
  41 H41           -1.8418    -4.3198     1.6267 H       
  42 H42           -3.4710    -4.5804     0.9570 H       
  43 H43            0.1598    -4.3565     0.0717 H       
  44 H44           -0.0925    -4.6424    -1.6677 H       
  45 H45           -1.3676    -2.5284    -1.8374 H       
  46 H46            0.2628    -2.2289    -1.1897 H       
  47 H47            0.7774     2.5200     2.4253 H       
  48 H48            2.0421     1.8631     4.4333 H       
  49 H49            4.1518     0.6139     4.2057 H       
  50 H50            4.9965     0.0210     1.9700 H       
  51 H51            3.7294     0.6738    -0.0378 H       
  52 H52            3.4584     3.7939    -0.2340 H       
  53 H53            3.3466     6.2502    -0.3656 H       
  54 H54            1.1605     7.3806    -0.4454 H       
  55 H55           -0.9138     6.0548    -0.3943 H       
  56 H56           -0.8019     3.5982    -0.2673 H       
  57 H57           -2.4139    -5.0707    -2.4034 H       
  58 H58           -1.9396    -6.8755    -2.2343 H       
  59 H59           -1.6332    -9.2767    -1.7840 H       
  60 H60           -1.0856    -8.4274     2.3616 H       
  61 H61           -1.3866    -6.0261     1.9084 H       
@<TRIPOS>BOND
   1    1    2 1
   2    1    3 1
   3    1   33 1
   4    1   34 1
   5    2    6 1
   6    2   35 1
   7    2   36 1
   8    3    4 1
   9    3    5 1
  10    3   31 1
  11    4   18 ar
  12    4   22 ar
  13    5   13 ar
  14    5   17 ar
  15    6    7 1
  16    6   37 1
  17    6   38 1
  18    7    8 1
  19    7   12 1
  20    8    9 1
  21    8   39 1
  22    8   40 1
  23    9   10 1
  24    9   41 1
  25    9   42 1
  26   10   11 1
  27   10   23 1
  28   10   24 1
  29   11   12 1
  30   11   43 1
  31   11   44 1
  32   12   45 1
  33   12   46 1
  34   13   14 ar
  35   13   47 1
  36   14   15 ar
  37   14   48 1
  38   15   16 ar
  39   15   49 1
  40   16   17 ar
  41   16   50 1
  42   17   51 1
  43   18   19 ar
  44   18   52 1
  45   19   20 ar
  46   19   53 1
  47   20   21 ar
  48   20   54 1
  49   21   22 ar
  50   21   55 1
  51   22   56 1
  52   23   25 ar
  53   23   29 ar
  54   24   57 1
  55   25   26 ar
  56   25   58 1
  57   26   27 ar
  58   26   59 1
  59   27   28 ar
  60   27   30 1
  61   28   29 ar
  62   28   60 1
  63   29   61 1
  64   31   32 3

#	End of record

