#	Name: ASD00310174
#	Creating user name:	WinNT
#	Creation time:	15. 06. 2019 18:33

#	Modifying user name:	WinNT
#	Modification time:	15. 06. 2019 18:33

#	Program:	/corina/corina34_cracker 3.40 0067  02.08.2006

@<TRIPOS>MOLECULE
ASD00310174
  43   47    0    0    0
SMALL
NO_CHARGES


@<TRIPOS>ATOM
   1 C1            -0.0168     1.3909     0.0097 C.ar    
   2 C2             0.0021    -0.0041     0.0020 C.ar    
   3 C3             1.1988    -0.6959    -0.0078 C.ar    
   4 C4             2.4090     0.0209    -0.0083 C.ar    
   5 C5             2.3744     1.4414    -0.0146 C.ar    
   6 C6             1.1418     2.1086     0.0025 C.ar    
   7 C7             3.6531    -0.6245     0.0044 C.ar    
   8 N8             4.7727     0.0676     0.0023 N.ar    
   9 C9             4.7742     1.4034    -0.0542 C.ar    
  10 C10            3.5971     2.1312    -0.0445 C.ar    
  11 C11            6.0377    -0.6697     0.1020 C.3     
  12 C12            7.1030    -0.0491    -0.7962 C.3     
  13 C13            7.2124     1.4287    -0.5134 C.ar    
  14 C14            6.0642     2.1339    -0.1616 C.ar    
  15 C15            8.4453     2.0545    -0.6083 C.ar    
  16 C16            8.4912     3.4183    -0.3459 C.ar    
  17 C17            7.3339     4.1358     0.0005 C.ar    
  18 C18            6.1022     3.5087     0.0981 C.ar    
  19 O19            9.5417     4.2698    -0.3622 O.3     
  20 C20            8.9666     5.5921    -0.4104 C.3     
  21 O21            7.6670     5.4321     0.1954 O.3     
  22 O22            1.2059    -2.0547    -0.0165 O.3     
  23 C23            1.2035    -2.6954    -1.2939 C.3     
  24 O24           -1.1715    -0.6918     0.0047 O.3     
  25 C25           -2.3749     0.0786     0.0155 C.3     
  26 H26           -0.9639     1.9099     0.0170 H       
  27 H27            1.1103     3.1882     0.0096 H       
  28 H28            3.6936    -1.7037     0.0163 H       
  29 H29            3.6185     3.2109    -0.0593 H       
  30 H30            6.3840    -0.6488     1.1353 H       
  31 H31            5.8739    -1.7044    -0.1991 H       
  32 H32            8.0633    -0.5270    -0.6028 H       
  33 H33            6.8286    -0.1988    -1.8404 H       
  34 H34            9.3352     1.5040    -0.8754 H       
  35 H35            5.2101     4.0571     0.3624 H       
  36 H36            9.5720     6.2930     0.1642 H       
  37 H37            8.8679     5.9282    -1.4426 H       
  38 H38            0.3095    -2.4036    -1.8450 H       
  39 H39            2.0894    -2.3942    -1.8530 H       
  40 H40            1.2099    -3.7768    -1.1580 H       
  41 H41           -2.3990     0.7024     0.9090 H       
  42 H42           -2.4087     0.7121    -0.8709 H       
  43 H43           -3.2350    -0.5909     0.0165 H       
@<TRIPOS>BOND
   1    1    2 ar
   2    1    6 ar
   3    1   26 1
   4    2    3 ar
   5    2   24 1
   6    3    4 ar
   7    3   22 1
   8    4    5 ar
   9    4    7 ar
  10    5    6 ar
  11    5   10 ar
  12    6   27 1
  13    7    8 ar
  14    7   28 1
  15    8    9 ar
  16    8   11 1
  17    9   10 ar
  18    9   14 1
  19   10   29 1
  20   11   12 1
  21   11   30 1
  22   11   31 1
  23   12   13 1
  24   12   32 1
  25   12   33 1
  26   13   14 ar
  27   13   15 ar
  28   14   18 ar
  29   15   16 ar
  30   15   34 1
  31   16   17 ar
  32   16   19 1
  33   17   18 ar
  34   17   21 1
  35   18   35 1
  36   19   20 1
  37   20   21 1
  38   20   36 1
  39   20   37 1
  40   22   23 1
  41   23   38 1
  42   23   39 1
  43   23   40 1
  44   24   25 1
  45   25   41 1
  46   25   42 1
  47   25   43 1

#	End of record

