#	Name: ASD01918143
#	Creating user name:	WinNT
#	Creation time:	15. 06. 2019 20:10

#	Modifying user name:	WinNT
#	Modification time:	15. 06. 2019 20:10

#	Program:	/corina/corina34_cracker 3.40 0067  02.08.2006

@<TRIPOS>MOLECULE
ASD01918143
  37   40    0    0    0
SMALL
NO_CHARGES


@<TRIPOS>ATOM
   1 N1             1.7310     4.4269     2.1052 N.ar    
   2 C2             2.5687     4.5679     3.1148 C.ar    
   3 C3             3.7776     3.8949     3.1339 C.ar    
   4 C4             4.1063     3.0615     2.0733 C.ar    
   5 C5             3.2006     2.9358     1.0267 C.ar    
   6 C6             2.0058     3.6448     1.0786 C.ar    
   7 O7             3.4795     2.1317    -0.0333 O.3     
   8 C8             4.7088     1.5524    -0.0893 C.2     
   9 N9             6.0256    -0.4177    -0.0228 N.pl3   
  10 C10            4.8192     0.2045     0.0267 C.2     
  11 C11            5.8419     2.3541    -0.2716 C.2     
  12 C12            7.0952     1.7545    -0.3278 C.2     
  13 C13            7.1752     0.3002    -0.1929 C.2     
  14 C14            8.3111     2.5630    -0.5188 C.2     
  15 N15            9.5173     1.9641    -0.5708 N.am    
  16 O16            8.2268     3.7713    -0.6297 O.2     
  17 N17            6.4169    -1.7615     0.0679 N.2     
  18 C18            7.7241    -1.7902    -0.0395 C.2     
  19 N19            8.1843    -0.5563    -0.2021 N.2     
  20 C20           10.6567     2.7150    -0.8568 C.ar    
  21 F21            4.6282     4.0473     4.1723 F       
  22 F22            1.1167     3.5316     0.0677 F       
  23 N23           10.5632     4.0305    -0.9690 N.ar    
  24 C24           11.8804     2.0752    -1.0156 C.ar    
  25 C25           13.0042     2.8315    -1.2988 C.ar    
  26 C26           12.8639     4.2093    -1.4140 C.ar    
  27 C27           11.6157     4.7789    -1.2382 C.ar    
  28 F28           13.9357     4.9844    -1.6891 F       
  29 H29            2.3075     5.2176     3.9371 H       
  30 H30            5.0431     2.5243     2.0617 H       
  31 H31            3.9262    -0.3877     0.1621 H       
  32 H32            5.7438     3.4253    -0.3677 H       
  33 H33            9.5928     1.0106    -0.4093 H       
  34 H34            8.3320    -2.6824    -0.0081 H       
  35 H35           11.9533     1.0020    -0.9188 H       
  36 H36           13.9683     2.3618    -1.4270 H       
  37 H37           11.5014     5.8495    -1.3224 H       
@<TRIPOS>BOND
   1    1    2 ar
   2    1    6 ar
   3    2    3 ar
   4    2   29 1
   5    3    4 ar
   6    3   21 1
   7    4    5 ar
   8    4   30 1
   9    5    6 ar
  10    5    7 1
  11    6   22 1
  12    7    8 1
  13    8   11 1
  14    8   10 2
  15    9   10 1
  16    9   17 1
  17    9   13 1
  18   10   31 1
  19   11   12 2
  20   11   32 1
  21   12   13 1
  22   12   14 1
  23   13   19 2
  24   14   15 am
  25   14   16 2
  26   15   20 1
  27   15   33 1
  28   17   18 2
  29   18   19 1
  30   18   34 1
  31   20   24 ar
  32   20   23 ar
  33   23   27 ar
  34   24   25 ar
  35   24   35 1
  36   25   26 ar
  37   25   36 1
  38   26   27 ar
  39   26   28 1
  40   27   37 1

#	End of record

