#	Name: ASD01810656
#	Creating user name:	WinNT
#	Creation time:	15. 06. 2019 19:25

#	Modifying user name:	WinNT
#	Modification time:	15. 06. 2019 19:25

#	Program:	/corina/corina34_cracker 3.40 0067  02.08.2006

@<TRIPOS>MOLECULE
ASD01810656
  26   26    0    0    0
SMALL
NO_CHARGES


@<TRIPOS>ATOM
   1 C1             0.0056     1.4691     0.1349 C.2     
   2 C2             0.0143     0.0046     0.1233 C.2     
   3 C3             1.2773    -0.7174    -0.0140 C.2     
   4 O4             1.0488     2.0840     0.0304 O.2     
   5 O5            -1.1615     2.1361     0.2561 O.3     
   6 O6             2.3102    -0.1046    -0.2135 O.2     
   7 N7            -1.0586    -0.6277     0.2307 N.1     
   8 N8            -2.0234    -1.1962     0.3274 N.pl3   
   9 C9             1.3007    -2.1905     0.0894 C.ar    
  10 C10            0.8444    -2.9785    -0.9754 C.ar    
  11 C11            0.8702    -4.3573    -0.8693 C.ar    
  12 C12            1.3449    -4.9560     0.2851 C.ar    
  13 C13            1.7973    -4.1809     1.3408 C.ar    
  14 C14            1.7839    -2.8061     1.2482 C.ar    
  15 F15            0.3804    -2.3937    -2.1014 F       
  16 Cl16           0.3060    -5.3385    -2.1855 Cl      
  17 C17           -1.0956     3.5635     0.2600 C.3     
  18 C18           -2.5060     4.1388     0.4047 C.3     
  19 H19            1.3624    -6.0330     0.3634 H       
  20 H20            2.1657    -4.6560     2.2380 H       
  21 H21            2.1417    -2.2050     2.0710 H       
  22 H22           -0.4799     3.8965     1.0955 H       
  23 H23           -0.6564     3.9096    -0.6757 H       
  24 H24           -2.4557     5.2276     0.4077 H       
  25 H25           -3.1217     3.8058    -0.4308 H       
  26 H26           -2.9453     3.7927     1.3403 H       
@<TRIPOS>BOND
   1    1    2 1
   2    1    4 2
   3    1    5 1
   4    2    3 1
   5    2    7 2
   6    3    6 2
   7    3    9 1
   8    5   17 1
   9    7    8 2
  10    9   10 ar
  11    9   14 ar
  12   10   11 ar
  13   10   15 1
  14   11   12 ar
  15   11   16 1
  16   12   13 ar
  17   12   19 1
  18   13   14 ar
  19   13   20 1
  20   14   21 1
  21   17   18 1
  22   17   22 1
  23   17   23 1
  24   18   24 1
  25   18   25 1
  26   18   26 1

#	End of record

