#	Name: ASD01917243
#	Creating user name:	WinNT
#	Creation time:	15. 06. 2019 20:08

#	Modifying user name:	WinNT
#	Modification time:	15. 06. 2019 20:08

#	Program:	/corina/corina34_cracker 3.40 0067  02.08.2006

@<TRIPOS>MOLECULE
ASD01917243
  42   42    0    0    0
SMALL
NO_CHARGES


@<TRIPOS>ATOM
   1 N1            -0.0169     1.3961     0.0097 N.2     
   2 N2             0.0021    -0.0041     0.0020 N.pl3   
   3 C3             1.3093    -0.4042    -0.0126 C.2     
   4 C4             2.0839     0.7387    -0.0139 C.2     
   5 C5             1.2196     1.8356     0.0003 C.2     
   6 C6             1.7982    -1.7906    -0.0240 C.2     
   7 O7             2.9931    -2.0136    -0.0367 O.2     
   8 O8             0.9214    -2.8147    -0.0204 O.3     
   9 O9             1.5968     3.1422     0.0033 O.3     
  10 C10            1.4752    -4.1568    -0.0322 C.3     
  11 C11            0.3364    -5.1786    -0.0260 C.3     
  12 C12           -1.1697    -0.8833     0.0085 C.3     
  13 C13           -1.5911    -1.1821    -1.4317 C.3     
  14 N14           -2.7629    -2.0613    -1.4252 N.am    
  15 O15           -4.3897    -3.2679    -2.5834 O.3     
  16 C16           -4.9290    -3.6570    -3.8742 C.3     
  17 C17           -3.8578    -4.4056    -4.6698 C.3     
  18 C18           -6.1404    -4.5683    -3.6670 C.3     
  19 C19           -5.3571    -2.4071    -4.6458 C.3     
  20 C20           -3.3128    -2.4599    -2.5894 C.2     
  21 O21           -2.8366    -2.0900    -3.6443 O.2     
  22 H22            3.1632     0.7774    -0.0237 H       
  23 H23            1.7145     3.5156     0.8875 H       
  24 H24            2.0801    -4.2924    -0.9287 H       
  25 H25            2.0974    -4.3009     0.8511 H       
  26 H26           -0.2685    -5.0430     0.8706 H       
  27 H27           -0.2858    -5.0345    -0.9093 H       
  28 H28            0.7522    -6.1861    -0.0348 H       
  29 H29           -0.9215    -1.8158     0.5154 H       
  30 H30           -1.9897    -0.3920     0.5324 H       
  31 H31           -1.8393    -0.2496    -1.9385 H       
  32 H32           -0.7712    -1.6733    -1.9556 H       
  33 H33           -3.1430    -2.3566    -0.5831 H       
  34 H34           -3.5528    -5.2960    -4.1201 H       
  35 H35           -4.2626    -4.6977    -5.6388 H       
  36 H36           -2.9948    -3.7564    -4.8174 H       
  37 H37           -6.9036    -4.0350    -3.1002 H       
  38 H38           -6.5453    -4.8604    -4.6360 H       
  39 H39           -5.8354    -5.4588    -3.1173 H       
  40 H40           -4.4941    -1.7579    -4.7934 H       
  41 H41           -5.7619    -2.6992    -5.6148 H       
  42 H42           -6.1203    -1.8738    -4.0790 H       
@<TRIPOS>BOND
   1    1    2 1
   2    1    5 2
   3    2    3 1
   4    2   12 1
   5    3    4 2
   6    3    6 1
   7    4    5 1
   8    4   22 1
   9    5    9 1
  10    6    7 2
  11    6    8 1
  12    8   10 1
  13    9   23 1
  14   10   11 1
  15   10   24 1
  16   10   25 1
  17   11   26 1
  18   11   27 1
  19   11   28 1
  20   12   13 1
  21   12   29 1
  22   12   30 1
  23   13   14 1
  24   13   31 1
  25   13   32 1
  26   14   20 am
  27   14   33 1
  28   15   16 1
  29   15   20 1
  30   16   17 1
  31   16   18 1
  32   16   19 1
  33   17   34 1
  34   17   35 1
  35   17   36 1
  36   18   37 1
  37   18   38 1
  38   18   39 1
  39   19   40 1
  40   19   41 1
  41   19   42 1
  42   20   21 2

#	End of record

