#	Name: ASD01814916
#	Creating user name:	WinNT
#	Creation time:	15. 06. 2019 19:33

#	Modifying user name:	WinNT
#	Modification time:	15. 06. 2019 19:33

#	Program:	/corina/corina34_cracker 3.40 0067  02.08.2006

@<TRIPOS>MOLECULE
ASD01814916
  52   56    0    0    0
SMALL
NO_CHARGES


@<TRIPOS>ATOM
   1 C1             0.0542     1.4841    -0.0143 C.2     
   2 C2             0.0478     0.0828    -0.0241 C.2     
   3 C3             1.2323    -0.5940    -0.0326 C.2     
   4 C4             2.4388     0.1256    -0.0314 C.2     
   5 N5             2.4155     1.4938    -0.0213 N.am    
   6 C6             1.2256     2.1595    -0.0132 C.2     
   7 C7             3.6574    -0.5676    -0.0400 C.2     
   8 C8             4.8351     0.1219    -0.0385 C.2     
   9 C9             4.8074     1.5288    -0.0286 C.2     
  10 C10            3.5660     2.1970    -0.0197 C.2     
  11 O11            3.5325     3.4159    -0.0115 O.2     
  12 C12            6.0572     2.2923    -0.0262 C.2     
  13 O13            6.0238     3.6408    -0.0168 O.3     
  14 O14            7.1254     1.7104    -0.0328 O.2     
  15 C15            3.6668    -2.0745    -0.0505 C.3     
  16 N16            3.7862    -2.5538    -1.4340 N.3     
  17 C17            4.0364    -4.0014    -1.4701 C.3     
  18 C18            4.0750    -4.4737    -2.9254 C.3     
  19 N19            5.1256    -3.7424    -3.6473 N.3     
  20 C20            4.8753    -2.2947    -3.6112 C.3     
  21 C21            4.8367    -1.8225    -2.1559 C.3     
  22 H22            4.9920    -4.2173    -0.9922 H       
  23 H23            4.2893    -5.5420    -2.9555 H       
  24 H24            3.1103    -4.2826    -3.3954 H       
  25 C25            5.2391    -4.1977    -4.9617 C.ar    
  26 C26            4.9152    -3.3652    -6.0178 C.ar    
  27 C27            5.0276    -3.8168    -7.3249 C.ar    
  28 C28            5.4615    -5.0962    -7.5929 C.ar    
  29 C29            5.7936    -5.9536    -6.5470 C.ar    
  30 C30            5.6876    -5.5005    -5.2214 C.ar    
  31 N31            6.2457    -7.2532    -6.4973 N.pl3   
  32 C32            6.4220    -7.6349    -5.1938 C.2     
  33 C33            6.1028    -6.6210    -4.3743 C.2     
  34 H34           -0.8797     2.0265    -0.0120 H       
  35 H35           -0.8875    -0.4572    -0.0246 H       
  36 H36            1.2424    -1.6740    -0.0399 H       
  37 H37            1.2187     3.2394    -0.0053 H       
  38 H38            5.7773    -0.4060    -0.0444 H       
  39 H39            6.8743     4.1010    -0.0156 H       
  40 H40            4.5126    -2.4367     0.5338 H       
  41 H41            2.7390    -2.4466     0.3841 H       
  42 H42            3.2387    -4.5217    -0.9400 H       
  43 H43            5.6731    -1.7744    -4.1413 H       
  44 H44            3.9197    -2.0788    -4.0890 H       
  45 H45            4.6225    -0.7542    -2.1258 H       
  46 H46            5.8014    -2.0136    -1.6858 H       
  47 H47            4.5731    -2.3593    -5.8240 H       
  48 H48            4.7715    -3.1578    -8.1414 H       
  49 H49            5.5440    -5.4349    -8.6151 H       
  50 H50            6.4137    -7.8148    -7.2701 H       
  51 H51            6.7689    -8.6061    -4.8732 H       
  52 H52            6.1436    -6.6298    -3.2952 H       
@<TRIPOS>BOND
   1    1    2 1
   2    1    6 2
   3    1   34 1
   4    2    3 2
   5    2   35 1
   6    3    4 1
   7    3   36 1
   8    4    5 1
   9    4    7 2
  10    5    6 1
  11    5   10 am
  12    6   37 1
  13    7   15 1
  14    7    8 1
  15    8    9 2
  16    8   38 1
  17    9   10 1
  18    9   12 1
  19   10   11 2
  20   12   13 1
  21   12   14 2
  22   13   39 1
  23   15   16 1
  24   15   40 1
  25   15   41 1
  26   16   17 1
  27   16   21 1
  28   17   18 1
  29   17   22 1
  30   17   42 1
  31   18   19 1
  32   18   23 1
  33   18   24 1
  34   19   20 1
  35   19   25 1
  36   20   21 1
  37   20   43 1
  38   20   44 1
  39   21   45 1
  40   21   46 1
  41   25   26 ar
  42   25   30 ar
  43   26   27 ar
  44   26   47 1
  45   27   28 ar
  46   27   48 1
  47   28   29 ar
  48   28   49 1
  49   29   30 ar
  50   29   31 1
  51   30   33 1
  52   31   32 1
  53   31   50 1
  54   32   33 2
  55   32   51 1
  56   33   52 1

#	End of record

