#	Name: ASD01917683
#	Creating user name:	WinNT
#	Creation time:	15. 06. 2019 20:09

#	Modifying user name:	WinNT
#	Modification time:	15. 06. 2019 20:09

#	Program:	/corina/corina34_cracker 3.40 0067  02.08.2006

@<TRIPOS>MOLECULE
ASD01917683
  42   44    0    0    0
SMALL
NO_CHARGES


@<TRIPOS>ATOM
   1 C1            -0.0189     1.5420     0.0105 C.3     
   2 C2             0.0021    -0.0041     0.0020 C.3     
   3 C3             1.3442    -0.3602     0.6025 C.2     
   4 N4             2.1544     0.7123     0.5924 N.am    
   5 C5             1.4890     1.8776    -0.0021 C.3     
   6 C6             1.9726     2.0879    -1.4383 C.3     
   7 C7             1.7603     3.1276     0.8374 C.3     
   8 C8             3.5253     0.7176     1.1090 C.3     
   9 O9             1.6451    -1.4541     1.0311 O.2     
  10 C10           -1.1170    -0.5514     0.8500 C.ar    
  11 N11           -2.0247    -1.3245     0.2867 N.ar    
  12 C12           -3.0231    -1.8263     0.9919 C.ar    
  13 C13           -3.1065    -1.5244     2.3575 C.ar    
  14 C14           -2.1195    -0.6990     2.9120 C.ar    
  15 N15           -1.1538    -0.2460     2.1322 N.ar    
  16 C16           -4.1702    -2.0441     3.1631 C.1     
  17 C17           -5.0422    -2.4702     3.8237 C.1     
  18 C18           -6.1059    -2.9899     4.6293 C.ar    
  19 C19           -6.1727    -2.6780     5.9893 C.ar    
  20 C20           -7.2023    -3.1829     6.7600 C.ar    
  21 C21           -8.1659    -3.9967     6.1859 C.ar    
  22 C22           -8.1042    -4.3086     4.8393 C.ar    
  23 C23           -7.0851    -3.8067     4.0572 C.ar    
  24 F24           -7.2695    -2.8830     8.0756 F       
  25 H25           -0.5124     1.9304    -0.8804 H       
  26 H26           -0.4952     1.9207     0.9148 H       
  27 H27           -0.0716    -0.3810    -1.0181 H       
  28 H28            1.7647     1.1939    -2.0263 H       
  29 H29            1.4521     2.9397    -1.8759 H       
  30 H30            3.0456     2.2798    -1.4360 H       
  31 H31            2.8317     3.3271     0.8563 H       
  32 H32            1.2397     3.9793     0.3995 H       
  33 H33            1.4026     2.9669     1.8544 H       
  34 H34            3.7724    -0.2719     1.4936 H       
  35 H35            4.2150     0.9780     0.3061 H       
  36 H36            3.6084     1.4505     1.9114 H       
  37 H37           -3.7628    -2.4584     0.5232 H       
  38 H38           -2.1452    -0.4408     3.9604 H       
  39 H39           -5.4215    -2.0444     6.4371 H       
  40 H40           -8.9685    -4.3897     6.7924 H       
  41 H41           -8.8583    -4.9437     4.3985 H       
  42 H42           -7.0392    -4.0512     3.0063 H       
@<TRIPOS>BOND
   1    1    2 1
   2    1    5 1
   3    1   25 1
   4    1   26 1
   5    2    3 1
   6    2   10 1
   7    2   27 1
   8    3    4 am
   9    3    9 2
  10    4    5 1
  11    4    8 1
  12    5    6 1
  13    5    7 1
  14    6   28 1
  15    6   29 1
  16    6   30 1
  17    7   31 1
  18    7   32 1
  19    7   33 1
  20    8   34 1
  21    8   35 1
  22    8   36 1
  23   10   11 ar
  24   10   15 ar
  25   11   12 ar
  26   12   13 ar
  27   12   37 1
  28   13   14 ar
  29   13   16 1
  30   14   15 ar
  31   14   38 1
  32   16   17 3
  33   17   18 1
  34   18   19 ar
  35   18   23 ar
  36   19   20 ar
  37   19   39 1
  38   20   21 ar
  39   20   24 1
  40   21   22 ar
  41   21   40 1
  42   22   23 ar
  43   22   41 1
  44   23   42 1

#	End of record

