#	Name: ASD00840148
#	Creating user name:	WinNT
#	Creation time:	15. 06. 2019 18:37

#	Modifying user name:	WinNT
#	Modification time:	15. 06. 2019 18:37

#	Program:	/corina/corina34_cracker 3.40 0067  02.08.2006

@<TRIPOS>MOLECULE
ASD00840148
  53   56    0    0    0
SMALL
NO_CHARGES


@<TRIPOS>ATOM
   1 N1             0.4071     1.5522     0.0282 N.am    
   2 C2             0.1188     0.2446    -0.0794 C.2     
   3 C3             1.4356    -0.4971    -0.1683 C.3     
   4 C4             2.4773     0.5961    -0.0934 C.ar    
   5 C5             3.8492     0.5775    -0.1208 C.ar    
   6 C6             4.5632     1.7773    -0.0306 C.ar    
   7 C7             3.8666     2.9865     0.0870 C.ar    
   8 C8             2.4888     2.9918     0.1134 C.ar    
   9 C9             1.7780     1.7945     0.0233 C.ar    
  10 C10            5.9949     1.7688    -0.0578 C.1     
  11 N11            7.1307     1.7622    -0.0793 N.1     
  12 O12           -0.9887    -0.2492    -0.1009 O.2     
  13 S13           -0.7387     2.7420     0.1461 S.o2    
  14 O14           -0.1688     3.9069    -0.4349 O.2     
  15 O15           -1.9598     2.1687    -0.3004 O.2     
  16 C16           -0.9511     3.0935     1.8595 C.ar    
  17 C17           -0.1124     3.9952     2.4883 C.ar    
  18 C18           -0.2769     4.2725     3.8315 C.ar    
  19 C19           -1.2847     3.6454     4.5497 C.ar    
  20 C20           -2.1249     2.7411     3.9166 C.ar    
  21 C21           -1.9598     2.4715     2.5718 C.ar    
  22 O22           -1.4483     3.9162     5.8714 O.3     
  23 C23           -2.5063     3.2337     6.5474 C.3     
  24 F24            4.5468     4.1504     0.1753 F       
  25 C25            0.7042    -2.5124     1.1454 C.ar    
  26 C26            1.5848    -1.4492     0.9902 C.ar    
  27 C27            2.6011    -1.2765     1.9133 C.ar    
  28 C28            2.7011    -2.1779     2.9644 C.ar    
  29 C29            1.7908    -3.2116     3.0565 C.ar    
  30 N30            0.8320    -3.3505     2.1605 N.ar    
  31 O31           -0.2998    -2.6895     0.2503 O.3     
  32 C32           -1.2310    -3.7396     0.5191 C.3     
  33 C33           -2.2232    -3.8505    -0.6402 C.3     
  34 N34            1.5358    -1.2173    -1.4447 N.3     
  35 H35            4.3762    -0.3608    -0.2115 H       
  36 H36            1.9566     3.9272     0.2046 H       
  37 H37            0.6722     4.4828     1.9288 H       
  38 H38            0.3787     4.9766     4.3223 H       
  39 H39           -2.9102     2.2516     4.4735 H       
  40 H40           -2.6167     1.7711     2.0773 H       
  41 H41           -2.5265     3.5401     7.5932 H       
  42 H42           -3.4578     3.4826     6.0775 H       
  43 H43           -2.3416     2.1579     6.4870 H       
  44 H44            3.3007    -0.4593     1.8181 H       
  45 H45            3.4829    -2.0718     3.7019 H       
  46 H46            1.8644    -3.9158     3.8721 H       
  47 H47           -0.6941    -4.6818     0.6293 H       
  48 H48           -1.7711    -3.5194     1.4398 H       
  49 H49           -2.8200    -2.9401    -0.6961 H       
  50 H50           -1.6773    -3.9849    -1.5741 H       
  51 H51           -2.8792    -4.7055    -0.4765 H       
  52 H52            0.8032    -1.9059    -1.5298 H       
  53 H53            1.5217    -0.5762    -2.2237 H       
@<TRIPOS>BOND
   1    1    2 am
   2    1    9 1
   3    1   13 am
   4    2    3 1
   5    2   12 2
   6    3    4 1
   7    3   26 1
   8    3   34 1
   9    4    5 ar
  10    4    9 ar
  11    5    6 ar
  12    5   35 1
  13    6    7 ar
  14    6   10 1
  15    7    8 ar
  16    7   24 1
  17    8    9 ar
  18    8   36 1
  19   10   11 3
  20   13   14 2
  21   13   15 2
  22   13   16 1
  23   16   17 ar
  24   16   21 ar
  25   17   18 ar
  26   17   37 1
  27   18   19 ar
  28   18   38 1
  29   19   20 ar
  30   19   22 1
  31   20   21 ar
  32   20   39 1
  33   21   40 1
  34   22   23 1
  35   23   41 1
  36   23   42 1
  37   23   43 1
  38   25   26 ar
  39   25   30 ar
  40   25   31 1
  41   26   27 ar
  42   27   28 ar
  43   27   44 1
  44   28   29 ar
  45   28   45 1
  46   29   30 ar
  47   29   46 1
  48   31   32 1
  49   32   33 1
  50   32   47 1
  51   32   48 1
  52   33   49 1
  53   33   50 1
  54   33   51 1
  55   34   52 1
  56   34   53 1

#	End of record

