#	Name: ASD01411168
#	Creating user name:	WinNT
#	Creation time:	15. 06. 2019 19:19

#	Modifying user name:	WinNT
#	Modification time:	15. 06. 2019 19:19

#	Program:	/corina/corina34_cracker 3.40 0067  02.08.2006

@<TRIPOS>MOLECULE
ASD01411168
  35   36    0    0    0
SMALL
NO_CHARGES


@<TRIPOS>ATOM
   1 C1             2.2763     1.4350    -0.5671 C.ar    
   2 C2             2.4122     0.0607    -0.6403 C.ar    
   3 C3             1.5392    -0.7615     0.0502 C.ar    
   4 C4             0.5286    -0.2106     0.8158 C.ar    
   5 C5             0.3905     1.1692     0.8911 C.ar    
   6 C6             1.2688     1.9913     0.1960 C.ar    
   7 C7             3.5129    -0.5427    -1.4742 C.3     
   8 S8             1.0976     3.7425     0.2886 S.o2    
   9 N9            -0.6296     1.7293     1.6634 N.pl3   
  10 O10            2.1211     4.2897    -0.5313 O.2     
  11 O11           -0.2828     4.0213     0.0986 O.2     
  12 N12            1.4550     4.1885     1.8429 N.am    
  13 C13            1.2661     4.8011     4.1837 C.3     
  14 C14            0.4744     4.4439     2.9081 C.3     
  15 C15            2.8095     4.3891     2.3893 C.3     
  16 C16            2.6575     4.1724     3.9156 C.3     
  17 C17           -0.4170     5.5950     2.5189 C.2     
  18 O18           -1.3803     6.0108     3.3562 O.3     
  19 O19           -0.2646     6.1436     1.4532 O.2     
  20 Cl20           1.7129    -2.4861    -0.0456 Cl      
  21 H21            2.9617     2.0740    -1.1039 H       
  22 H22           -0.1529    -0.8524     1.3544 H       
  23 H23            4.4052    -0.6695    -0.8611 H       
  24 H24            3.1915    -1.5128    -1.8531 H       
  25 H25            3.7382     0.1179    -2.3114 H       
  26 H26           -1.2566     1.1542     2.1294 H       
  27 H27           -0.7112     2.6933     1.7336 H       
  28 H28            1.3443     5.8821     4.2990 H       
  29 H29            0.8048     4.3508     5.0626 H       
  30 H30           -0.1252     3.5503     3.0820 H       
  31 H31            3.5001     3.6578     1.9692 H       
  32 H32            3.1559     5.4017     2.1825 H       
  33 H33            3.4373     4.7010     4.4638 H       
  34 H34            2.6604     3.1105     4.1617 H       
  35 H35           -1.9268     6.7526     3.0628 H       
@<TRIPOS>BOND
   1    1    2 ar
   2    1    6 ar
   3    1   21 1
   4    2    3 ar
   5    2    7 1
   6    3    4 ar
   7    3   20 1
   8    4    5 ar
   9    4   22 1
  10    5    6 ar
  11    5    9 1
  12    6    8 1
  13    7   23 1
  14    7   24 1
  15    7   25 1
  16    8   10 2
  17    8   11 2
  18    8   12 am
  19    9   26 1
  20    9   27 1
  21   12   15 1
  22   12   14 1
  23   13   14 1
  24   13   16 1
  25   13   28 1
  26   13   29 1
  27   14   17 1
  28   14   30 1
  29   15   16 1
  30   15   31 1
  31   15   32 1
  32   16   33 1
  33   16   34 1
  34   17   18 1
  35   17   19 2
  36   18   35 1

#	End of record

