#	Name: ASD03090356
#	Creating user name:	WinNT
#	Creation time:	15. 06. 2019 20:28

#	Modifying user name:	WinNT
#	Modification time:	15. 06. 2019 20:28

#	Program:	/corina/corina34_cracker 3.40 0067  02.08.2006

@<TRIPOS>MOLECULE
ASD03090356
  62   66    0    0    0
SMALL
NO_CHARGES


@<TRIPOS>ATOM
   1 C1            -0.0048     1.4035     0.0738 C.ar    
   2 C2             0.1641     0.2503     0.8293 C.ar    
   3 C3             1.3617    -0.4318     0.7975 C.ar    
   4 C4             2.4096     0.0362     0.0035 C.ar    
   5 C5             2.2413     1.1950    -0.7549 C.ar    
   6 C6             1.0373     1.8767    -0.7177 C.ar    
   7 C7             3.6951    -0.6940    -0.0335 C.2     
   8 N8             7.1464    -0.9740    -0.6388 N.pl3   
   9 C9             7.6286     0.3212    -1.1245 C.3     
  10 N10            4.8570    -0.2004    -0.4143 N.2     
  11 C11            5.7982    -1.1415    -0.3190 C.2     
  12 N12            5.2522    -2.2501     0.1239 N.2     
  13 N13            3.8878    -1.9840     0.3226 N.pl3   
  14 C14            2.8726    -2.9211     0.8099 C.3     
  15 C15            2.8702    -2.9201     2.3399 C.3     
  16 C16            1.8259    -3.8841     2.8412 C.2     
  17 O17            1.1501    -4.5102     2.0524 O.2     
  18 N18            1.6429    -4.0505     4.1661 N.am    
  19 C19            0.6277    -4.9876     4.6534 C.3     
  20 C20            2.4592    -3.2942     5.1189 C.3     
  21 C21            9.1049     0.4767    -0.8285 C.ar    
  22 C22            9.8391     0.2375    -1.9748 C.ar    
  23 C23            8.9065    -0.0951    -3.1197 C.3     
  24 C24            7.5154     0.3925    -2.6622 C.3     
  25 C25            9.7545     0.8014     0.3509 C.ar    
  26 C26           11.1324     0.8867     0.3847 C.ar    
  27 C27           11.8668     0.6474    -0.7620 C.ar    
  28 C28           11.2209     0.3239    -1.9390 C.ar    
  29 O29            0.8908     3.0102    -1.4574 O.3     
  30 C30           -0.4487     3.4604    -1.6868 C.3     
  31 C31           -1.2077     3.4095    -0.3540 C.3     
  32 O32           -1.1984     2.0560     0.1143 O.3     
  33 C33           11.8349     1.2408     1.6701 C.3     
  34 F34           12.1238     0.0711     2.3811 F       
  35 F35           13.0252     1.9163     1.3802 F       
  36 F36           11.0078     2.0636     2.4421 F       
  37 H37           -0.6457    -0.1132     1.4445 H       
  38 H38            1.4889    -1.3277     1.3869 H       
  39 H39            3.0501     1.5599    -1.3707 H       
  40 H40            7.7641    -1.7153    -0.5394 H       
  41 H41            7.0632     1.1315    -0.6642 H       
  42 H42            1.8918    -2.6164     0.4449 H       
  43 H43            3.0998    -3.9236     0.4476 H       
  44 H44            3.8510    -3.2248     2.7050 H       
  45 H45            2.6430    -1.9176     2.7023 H       
  46 H46            1.0734    -5.9747     4.7758 H       
  47 H47            0.2438    -4.6408     5.6128 H       
  48 H48           -0.1893    -5.0444     3.9341 H       
  49 H49            3.1534    -2.6539     4.5746 H       
  50 H50            1.8118    -2.6794     5.7442 H       
  51 H51            3.0198    -3.9866     5.7469 H       
  52 H52            9.2137     0.4318    -4.0231 H       
  53 H53            8.8914    -1.1708    -3.2950 H       
  54 H54            6.7327    -0.2741    -3.0244 H       
  55 H55            7.3364     1.4164    -2.9905 H       
  56 H56            9.1814     0.9888     1.2469 H       
  57 H57           12.9445     0.7140    -0.7374 H       
  58 H58           11.7953     0.1371    -2.8344 H       
  59 H59           -0.4333     4.4836    -2.0622 H       
  60 H60           -0.9361     2.8094    -2.4125 H       
  61 H61           -0.7164     4.0553     0.3738 H       
  62 H62           -2.2358     3.7389    -0.5036 H       
@<TRIPOS>BOND
   1    1    2 ar
   2    1    6 ar
   3    1   32 1
   4    2    3 ar
   5    2   37 1
   6    3    4 ar
   7    3   38 1
   8    4    5 ar
   9    4    7 1
  10    5    6 ar
  11    5   39 1
  12    6   29 1
  13    7   10 2
  14    7   13 1
  15    8    9 1
  16    8   11 1
  17    8   40 1
  18    9   21 1
  19    9   24 1
  20    9   41 1
  21   10   11 1
  22   11   12 2
  23   12   13 1
  24   13   14 1
  25   14   15 1
  26   14   42 1
  27   14   43 1
  28   15   16 1
  29   15   44 1
  30   15   45 1
  31   16   17 2
  32   16   18 am
  33   18   19 1
  34   18   20 1
  35   19   46 1
  36   19   47 1
  37   19   48 1
  38   20   49 1
  39   20   50 1
  40   20   51 1
  41   21   22 ar
  42   21   25 ar
  43   22   23 1
  44   22   28 ar
  45   23   24 1
  46   23   52 1
  47   23   53 1
  48   24   54 1
  49   24   55 1
  50   25   26 ar
  51   25   56 1
  52   26   27 ar
  53   26   33 1
  54   27   28 ar
  55   27   57 1
  56   28   58 1
  57   29   30 1
  58   30   31 1
  59   30   59 1
  60   30   60 1
  61   31   32 1
  62   31   61 1
  63   31   62 1
  64   33   34 1
  65   33   35 1
  66   33   36 1

#	End of record

