#	Name: ASD01410255
#	Creating user name:	WinNT
#	Creation time:	15. 06. 2019 19:17

#	Modifying user name:	WinNT
#	Modification time:	15. 06. 2019 19:17

#	Program:	/corina/corina34_cracker 3.40 0067  02.08.2006

@<TRIPOS>MOLECULE
ASD01410255
  30   31    0    0    0
SMALL
NO_CHARGES


@<TRIPOS>ATOM
   1 C1            -0.0165     1.3757     0.0330 C.ar    
   2 C2             0.0019    -0.0056     0.0281 C.ar    
   3 C3            -1.1849    -0.7223     0.0312 C.ar    
   4 C4            -2.3956    -0.0626     0.0392 C.ar    
   5 C5            -2.4280     1.3344     0.0447 C.ar    
   6 C6            -1.2267     2.0553     0.0468 C.ar    
   7 O7            -1.2462     3.4121     0.0521 O.3     
   8 Cl8            1.4759     2.2626     0.0290 Cl      
   9 C9            -3.7200     2.0462     0.0533 C.2     
  10 N10           -4.8734     1.3491     0.0559 N.am    
  11 O11           -3.7443     3.2620     0.0580 O.2     
  12 C12           -7.2169     1.5472    -0.4925 C.ar    
  13 C13           -6.0955     2.0192     0.1769 C.ar    
  14 C14           -6.1895     3.1578     0.9670 C.ar    
  15 C15           -7.3971     3.8170     1.0850 C.ar    
  16 C16           -8.5133     3.3441     0.4171 C.ar    
  17 C17           -8.4224     2.2102    -0.3706 C.ar    
  18 Cl18          -1.1464    -2.4579     0.0244 Cl      
  19 Cl19         -10.0301     4.1747     0.5685 Cl      
  20 C20           -7.4998     5.0523     1.9421 C.3     
  21 H21            0.9460    -0.5301     0.0215 H       
  22 H22           -3.3177    -0.6249     0.0409 H       
  23 H23           -1.2514     3.8020     0.9370 H       
  24 H24           -4.8563     0.3827    -0.0260 H       
  25 H25           -7.1454     0.6647    -1.1110 H       
  26 H26           -5.3190     3.5268     1.4889 H       
  27 H27           -9.2949     1.8435    -0.8910 H       
  28 H28           -7.2855     5.9332     1.3370 H       
  29 H29           -8.5075     5.1284     2.3505 H       
  30 H30           -6.7806     4.9887     2.7587 H       
@<TRIPOS>BOND
   1    1    2 ar
   2    1    8 1
   3    1    6 ar
   4    2    3 ar
   5    2   21 1
   6    3    4 ar
   7    3   18 1
   8    4    5 ar
   9    4   22 1
  10    5    6 ar
  11    5    9 1
  12    6    7 1
  13    7   23 1
  14    9   10 am
  15    9   11 2
  16   10   13 1
  17   10   24 1
  18   12   13 ar
  19   12   17 ar
  20   12   25 1
  21   13   14 ar
  22   14   15 ar
  23   14   26 1
  24   15   16 ar
  25   15   20 1
  26   16   17 ar
  27   16   19 1
  28   17   27 1
  29   20   28 1
  30   20   29 1
  31   20   30 1

#	End of record

