#	Name: ASD05720032
#	Creating user name:	WinNT
#	Creation time:	15. 06. 2019 21:01

#	Modifying user name:	WinNT
#	Modification time:	15. 06. 2019 21:01

#	Program:	/corina/corina34_cracker 3.40 0067  02.08.2006

@<TRIPOS>MOLECULE
ASD05720032
  50   53    0    0    0
SMALL
NO_CHARGES


@<TRIPOS>ATOM
   1 O1            -0.0161     1.3334     0.0094 O.3     
   2 C2             0.0021    -0.0041     0.0020 C.2     
   3 N3             1.2348    -0.5293    -0.0126 N.am    
   4 C4             2.2183     0.5645    -0.0161 C.3     
   5 C5             1.3508     1.8379    -0.0010 C.3     
   6 O6            -1.0069    -0.6808     0.0087 O.2     
   7 C7             1.6043     2.6745    -1.2567 C.3     
   8 F8             0.7425     3.7765    -1.2646 F       
   9 F9             2.9305     3.1196    -1.2606 F       
  10 F10            1.3715     1.8923    -2.3930 F       
  11 C11            3.0997    -3.5830    -0.0460 C.2     
  12 N12            2.7934    -2.2820    -0.0360 N.2     
  13 C13            1.5348    -1.8852    -0.0223 C.2     
  14 C14            0.4948    -2.8369    -0.0171 C.2     
  15 C15            0.8012    -4.1541    -0.0267 C.2     
  16 N16            2.1143    -4.5345    -0.0412 N.pl3   
  17 N17            2.7294    -5.7914    -0.0540 N.2     
  18 C18            4.0305    -5.6364    -0.0661 C.2     
  19 C19            4.3226    -4.2670    -0.0674 C.2     
  20 C20            5.6706    -3.6561    -0.0859 C.ar    
  21 C21            6.6416    -4.0791     0.8236 C.ar    
  22 C22            7.8955    -3.5104     0.8059 C.ar    
  23 C23            8.1956    -2.5119    -0.1206 C.ar    
  24 C24            7.2260    -2.0887    -1.0296 C.ar    
  25 C25            5.9735    -2.6607    -1.0167 C.ar    
  26 N26           11.2841    -0.6732    -0.6295 N.pl3   
  27 N27            9.9485    -0.9540    -0.9602 N.2     
  28 C28            9.5462    -1.8994    -0.1388 C.2     
  29 N29           10.5590    -2.2168     0.6794 N.2     
  30 C30           11.6044    -1.4870     0.3926 C.2     
  31 H31            2.8457     0.5180     0.8740 H       
  32 H32            2.8286     0.5277    -0.9184 H       
  33 H33            1.5485     2.4243     0.8964 H       
  34 H34           -0.5367    -2.5172    -0.0052 H       
  35 H35            0.0174    -4.8972    -0.0225 H       
  36 H36            4.7584    -6.4342    -0.0770 H       
  37 H37            6.4092    -4.8521     1.5413 H       
  38 H38            8.6466    -3.8373     1.5097 H       
  39 H39            7.4591    -1.3155    -1.7467 H       
  40 H40            5.2243    -2.3363    -1.7238 H       
  41 H41           11.8633    -0.0231    -1.0569 H       
  42 H42           12.5617    -1.5301     0.8907 H       
  43 C43           18.7332    10.7648     7.6881 C.2     
  44 C44           18.7536     9.2579     7.6798 C.3     
  45 O45           19.7712    11.3831     7.6815 O.2     
  46 O46           17.5617    11.4200     7.6972 O.3     
  47 F47           20.0787     8.8096     7.6647 F       
  48 F48           18.1114     8.7765     8.8257 F       
  49 F49           18.0896     8.7888     6.5413 F       
  50 H50           17.5992    12.3863     7.7023 H       
@<TRIPOS>BOND
   1    1    2 1
   2    1    5 1
   3    2    3 am
   4    2    6 2
   5    3    4 1
   6    3   13 1
   7    4    5 1
   8    4   31 1
   9    4   32 1
  10    5    7 1
  11    5   33 1
  12    7    8 1
  13    7    9 1
  14    7   10 1
  15   11   12 1
  16   11   16 1
  17   11   19 2
  18   12   13 2
  19   13   14 1
  20   14   15 2
  21   14   34 1
  22   15   16 1
  23   15   35 1
  24   16   17 1
  25   17   18 2
  26   18   19 1
  27   18   36 1
  28   19   20 1
  29   20   21 ar
  30   20   25 ar
  31   21   22 ar
  32   21   37 1
  33   22   23 ar
  34   22   38 1
  35   23   24 ar
  36   23   28 1
  37   24   25 ar
  38   24   39 1
  39   25   40 1
  40   26   27 1
  41   26   30 1
  42   26   41 1
  43   27   28 2
  44   28   29 1
  45   29   30 2
  46   30   42 1
  47   43   44 1
  48   43   45 2
  49   43   46 1
  50   44   47 1
  51   44   48 1
  52   44   49 1
  53   46   50 1

#	End of record

