#	Name: ASD01910551
#	Creating user name:	WinNT
#	Creation time:	15. 06. 2019 19:56

#	Modifying user name:	WinNT
#	Modification time:	15. 06. 2019 19:56

#	Program:	/corina/corina34_cracker 3.40 0067  02.08.2006

@<TRIPOS>MOLECULE
ASD01910551
  42   45    0    0    0
SMALL
NO_CHARGES


@<TRIPOS>ATOM
   1 N1             0.0807     0.1660     0.1032 N.2     
   2 C2             0.1254    -1.0141     0.6709 C.2     
   3 N3             1.4316    -1.3153     0.8611 N.2     
   4 C4             2.1002    -0.2914     0.3933 C.2     
   5 O5             1.2047     0.5909    -0.0614 O.3     
   6 C6            -1.0320    -1.8572     1.0358 C.2     
   7 C7            -2.3449    -1.5456     0.8407 C.2     
   8 C8            -3.1070    -2.6185     1.3296 C.2     
   9 C9            -2.2484    -3.5488     1.8061 C.2     
  10 N10           -0.9756    -3.0947     1.6254 N.pl3   
  11 C11            3.9968     1.1035     1.1781 C.3     
  12 C12            3.5991    -0.1366     0.3714 C.3     
  13 C13            4.0748     0.0260    -1.0741 C.3     
  14 C14            5.5999     0.1504    -1.1001 C.3     
  15 C15            6.0203     1.3938    -0.3100 C.3     
  16 N16            5.4443     1.3138     1.0392 N.am    
  17 C17            6.2288     1.4307     2.1288 C.2     
  18 C18            7.6926     1.5574     1.9749 C.ar    
  19 O19            5.7320     1.4319     3.2384 O.2     
  20 C20            8.2256     2.5054     1.0989 C.ar    
  21 C21            9.5921     2.6198     0.9595 C.ar    
  22 C22           10.4371     1.7956     1.6870 C.ar    
  23 C23            9.9132     0.8523     2.5578 C.ar    
  24 C24            8.5483     0.7335     2.7092 C.ar    
  25 F25           11.7758     1.9118     1.5465 F       
  26 F26           -4.4551    -2.7061     1.3250 F       
  27 H27           -2.7279    -0.6404     0.3931 H       
  28 H28           -2.5244    -4.4935     2.2509 H       
  29 H29           -0.1656    -3.5651     1.8775 H       
  30 H30            3.4629     1.9741     0.7971 H       
  31 H31            3.7488     0.9511     2.2285 H       
  32 H32            4.0630    -1.0200     0.8099 H       
  33 H33            3.7715    -0.8442    -1.6562 H       
  34 H34            3.6298     0.9233    -1.5041 H       
  35 H35            6.0450    -0.7358    -0.6477 H       
  36 H36            5.9398     0.2427    -2.1316 H       
  37 H37            7.1074     1.4328    -0.2415 H       
  38 H38            5.6514     2.2880    -0.8124 H       
  39 H39            7.5683     3.1476     0.5315 H       
  40 H40           10.0054     3.3523     0.2820 H       
  41 H41           10.5758     0.2126     3.1218 H       
  42 H42            8.1412    -0.0013     3.3879 H       
@<TRIPOS>BOND
   1    1    2 2
   2    1    5 1
   3    2    3 1
   4    2    6 1
   5    3    4 2
   6    4    5 1
   7    4   12 1
   8    6    7 2
   9    6   10 1
  10    7    8 1
  11    7   27 1
  12    8    9 2
  13    8   26 1
  14    9   10 1
  15    9   28 1
  16   10   29 1
  17   11   12 1
  18   11   16 1
  19   11   30 1
  20   11   31 1
  21   12   13 1
  22   12   32 1
  23   13   14 1
  24   13   33 1
  25   13   34 1
  26   14   15 1
  27   14   35 1
  28   14   36 1
  29   15   16 1
  30   15   37 1
  31   15   38 1
  32   16   17 am
  33   17   18 1
  34   17   19 2
  35   18   20 ar
  36   18   24 ar
  37   20   21 ar
  38   20   39 1
  39   21   22 ar
  40   21   40 1
  41   22   23 ar
  42   22   25 1
  43   23   24 ar
  44   23   41 1
  45   24   42 1

#	End of record

