#	Name: ASD03540470
#	Creating user name:	WinNT
#	Creation time:	15. 06. 2019 20:43

#	Modifying user name:	WinNT
#	Modification time:	15. 06. 2019 20:43

#	Program:	/corina/corina34_cracker 3.40 0067  02.08.2006

@<TRIPOS>MOLECULE
ASD03540470
  45   48    0    0    0
SMALL
NO_CHARGES


@<TRIPOS>ATOM
   1 N1             0.0530     2.3443    -1.0304 N.am    
   2 C2             0.1636     1.0238    -0.8076 C.2     
   3 N3             1.3431     0.3836    -0.7926 N.am    
   4 C4             2.5015     1.0454    -1.0044 C.2     
   5 C5             2.4396     2.4973    -1.2544 C.ar    
   6 C6             3.5862     3.2478    -1.4804 C.ar    
   7 C7             3.4692     4.6186    -1.7111 C.ar    
   8 C8             2.2063     5.2248    -1.7128 C.ar    
   9 C9             1.0790     4.4858    -1.4904 C.ar    
  10 C10            1.1762     3.1193    -1.2593 C.ar    
  11 C11            4.6767     5.4307    -1.9529 C.2     
  12 O12            5.7723     4.9057    -1.9511 O.2     
  13 O13            4.5645     6.7548    -2.1758 O.3     
  14 O14            3.5668     0.4595    -0.9891 O.2     
  15 O15           -0.8492     0.3808    -0.6107 O.2     
  16 C16            1.3749    -1.0593    -0.5413 C.3     
  17 C17            1.2704    -1.7996    -1.8498 C.ar    
  18 C18            2.4181    -2.1291    -2.5484 C.ar    
  19 C19            2.3290    -2.8068    -3.7470 C.ar    
  20 C20            1.0784    -3.1596    -4.2540 C.ar    
  21 C21           -0.0750    -2.8246    -3.5450 C.ar    
  22 C22            0.0275    -2.1517    -2.3446 C.ar    
  23 N23            1.9707    -4.5629    -6.1647 N.pl3   
  24 N24            1.3880    -5.0755    -7.3370 N.2     
  25 N25            0.1561    -4.6961    -7.3388 N.2     
  26 N26           -0.0989    -3.9985    -6.2912 N.2     
  27 C27            0.9757    -3.8862    -5.5395 C.2     
  28 C28            3.3542    -4.7294    -5.7126 C.3     
  29 C29           -1.2720     2.9693    -1.0371 C.3     
  30 H30            4.5575     2.7756    -1.4772 H       
  31 H31            2.1230     6.2867    -1.8914 H       
  32 H32            0.1109     4.9645    -1.4942 H       
  33 H33            5.3837     7.2451    -2.3292 H       
  34 H34            2.3114    -1.3219    -0.0491 H       
  35 H35            0.5377    -1.3350     0.1000 H       
  36 H36            3.3858    -1.8550    -2.1550 H       
  37 H37            3.2257    -3.0631    -4.2917 H       
  38 H38           -1.0462    -3.0948    -3.9326 H       
  39 H39           -0.8647    -1.8956    -1.7925 H       
  40 H40            3.9422    -3.8629    -6.0153 H       
  41 H41            3.3731    -4.8199    -4.6265 H       
  42 H42            3.7767    -5.6293    -6.1596 H       
  43 H43           -2.0320     2.2119    -0.8453 H       
  44 H44           -1.3170     3.7337    -0.2613 H       
  45 H45           -1.4528     3.4274    -2.0095 H       
@<TRIPOS>BOND
   1    1    2 am
   2    1   10 1
   3    1   29 1
   4    2    3 am
   5    2   15 2
   6    3    4 am
   7    3   16 1
   8    4    5 1
   9    4   14 2
  10    5    6 ar
  11    5   10 ar
  12    6    7 ar
  13    6   30 1
  14    7    8 ar
  15    7   11 1
  16    8    9 ar
  17    8   31 1
  18    9   10 ar
  19    9   32 1
  20   11   12 2
  21   11   13 1
  22   13   33 1
  23   16   17 1
  24   16   34 1
  25   16   35 1
  26   17   18 ar
  27   17   22 ar
  28   18   19 ar
  29   18   36 1
  30   19   20 ar
  31   19   37 1
  32   20   21 ar
  33   20   27 1
  34   21   22 ar
  35   21   38 1
  36   22   39 1
  37   23   24 1
  38   23   27 1
  39   23   28 1
  40   24   25 2
  41   25   26 1
  42   26   27 2
  43   28   40 1
  44   28   41 1
  45   28   42 1
  46   29   43 1
  47   29   44 1
  48   29   45 1

#	End of record

