#	Name: ASD09740710
#	Creating user name:	WinNT
#	Creation time:	15. 06. 2019 21:23

#	Modifying user name:	WinNT
#	Modification time:	15. 06. 2019 21:23

#	Program:	/corina/corina34_cracker 3.40 0067  02.08.2006

@<TRIPOS>MOLECULE
ASD09740710
  30   31    0    0    0
SMALL
NO_CHARGES


@<TRIPOS>ATOM
   1 C1             0.0018    -0.0037    -0.0174 C.1     
   2 C2            -0.0174     1.4281     0.0015 C.ar    
   3 C3             1.1862     2.1482     0.0035 C.ar    
   4 C4             1.1646     3.5350     0.0215 C.ar    
   5 C5            -0.0372     4.2107     0.0374 C.ar    
   6 C6            -1.2425     3.5035     0.0356 C.ar    
   7 C7            -1.2328     2.1115     0.0123 C.ar    
   8 N8             0.0171    -1.1395    -0.0325 N.1     
   9 C9            -2.5282     4.2338     0.0528 C.2     
  10 C10           -2.6613     5.5747     0.0708 C.2     
  11 C11           -3.9660     6.0246     0.0840 C.2     
  12 C12           -4.8955     5.0652     0.0769 C.2     
  13 S13           -4.1206     3.4869     0.0452 S.3     
  14 O14            2.3720     1.4882    -0.0117 O.3     
  15 C15            3.5546     2.2817    -0.1293 C.3     
  16 C16            3.9802     2.7713     1.2564 C.3     
  17 C17            4.6762     1.4381    -0.7388 C.3     
  18 H18            2.0925     4.0875     0.0233 H       
  19 H19           -0.0470     5.2905     0.0517 H       
  20 H20           -2.1632     1.5631     0.0068 H       
  21 H21           -1.8140     6.2444     0.0750 H       
  22 H22           -4.2171     7.0749     0.0994 H       
  23 H23           -5.9622     5.2336     0.0857 H       
  24 H24            3.3546     3.1390    -0.7719 H       
  25 H25            4.8823     3.3765     1.1667 H       
  26 H26            3.1812     3.3722     1.6907 H       
  27 H27            4.1803     1.9139     1.8991 H       
  28 H28            4.3730     1.0894    -1.7259 H       
  29 H29            5.5783     2.0434    -0.8284 H       
  30 H30            4.8763     0.5808    -0.0961 H       
@<TRIPOS>BOND
   1    1    2 1
   2    1    8 3
   3    2    3 ar
   4    2    7 ar
   5    3    4 ar
   6    3   14 1
   7    4    5 ar
   8    4   18 1
   9    5    6 ar
  10    5   19 1
  11    6    7 ar
  12    6    9 1
  13    7   20 1
  14    9   10 2
  15    9   13 1
  16   10   11 1
  17   10   21 1
  18   11   12 2
  19   11   22 1
  20   12   13 1
  21   12   23 1
  22   14   15 1
  23   15   16 1
  24   15   17 1
  25   15   24 1
  26   16   25 1
  27   16   26 1
  28   16   27 1
  29   17   28 1
  30   17   29 1
  31   17   30 1

#	End of record

