#	Name: ASD02030400
#	Creating user name:	WinNT
#	Creation time:	15. 06. 2019 20:15

#	Modifying user name:	WinNT
#	Modification time:	15. 06. 2019 20:15

#	Program:	/corina/corina34_cracker 3.40 0067  02.08.2006

@<TRIPOS>MOLECULE
ASD02030400
  27   28    0    0    0
SMALL
NO_CHARGES


@<TRIPOS>ATOM
   1 C1            -0.0157     1.3095     0.0092 C.ar    
   2 N2             0.0021    -0.0041     0.0020 N.ar    
   3 C3             1.1389    -0.7087    -0.0126 C.ar    
   4 C4             2.3740    -0.0872    -0.0205 C.ar    
   5 C5             2.4217     1.3195    -0.0134 C.ar    
   6 C6             3.6344     2.0221    -0.0212 C.ar    
   7 C7             3.6198     3.3876    -0.0142 C.ar    
   8 C8             2.4152     4.0905     0.0005 C.ar    
   9 C9             1.2197     3.4357     0.0084 C.ar    
  10 C10            1.1973     2.0353     0.0016 C.ar    
  11 C11            1.0733    -2.1853    -0.0199 C.2     
  12 O12            2.0972    -2.8386    -0.0332 O.2     
  13 O13           -0.1221    -2.8065    -0.0119 O.3     
  14 O14           -1.1989     1.9697     0.0184 O.3     
  15 C15           -2.3859     1.1740     0.0197 C.3     
  16 F16            4.7877     4.0667    -0.0213 F       
  17 C17           -0.1105    -4.2584    -0.0198 C.3     
  18 H18            3.2836    -0.6693    -0.0316 H       
  19 H19            4.5730     1.4879    -0.0323 H       
  20 H20            2.4299     5.1704     0.0061 H       
  21 H21            0.2951     3.9936     0.0201 H       
  22 H22           -2.3974     0.5401     0.9063 H       
  23 H23           -3.2599     1.8253     0.0274 H       
  24 H24           -2.4058     0.5498    -0.8736 H       
  25 H25            0.4146    -4.6224     0.8633 H       
  26 H26           -1.1352    -4.6300    -0.0121 H       
  27 H27            0.3977    -4.6128    -0.9166 H       
@<TRIPOS>BOND
   1    1    2 ar
   2    1   10 ar
   3    1   14 1
   4    2    3 ar
   5    3    4 ar
   6    3   11 1
   7    4    5 ar
   8    4   18 1
   9    5    6 ar
  10    5   10 ar
  11    6    7 ar
  12    6   19 1
  13    7    8 ar
  14    7   16 1
  15    8    9 ar
  16    8   20 1
  17    9   10 ar
  18    9   21 1
  19   11   12 2
  20   11   13 1
  21   13   17 1
  22   14   15 1
  23   15   22 1
  24   15   23 1
  25   15   24 1
  26   17   25 1
  27   17   26 1
  28   17   27 1

#	End of record

