#	Name: ASD01915294
#	Creating user name:	WinNT
#	Creation time:	15. 06. 2019 20:05

#	Modifying user name:	WinNT
#	Modification time:	15. 06. 2019 20:05

#	Program:	/corina/corina34_cracker 3.40 0067  02.08.2006

@<TRIPOS>MOLECULE
ASD01915294
  45   47    0    0    0
SMALL
NO_CHARGES


@<TRIPOS>ATOM
   1 C1            -0.1878     1.8358    -0.0151 C.2     
   2 C2            -0.3737     0.3520     0.1710 C.3     
   3 N3             1.0515     2.3655    -0.0103 N.am    
   4 O4            -1.1531     2.5527    -0.1743 O.2     
   5 O5            -1.7670     0.0374     0.1281 O.3     
   6 C6            -2.0545    -1.3523     0.2955 C.3     
   7 C7            -3.5447    -1.5680     0.2336 C.ar    
   8 C8            -4.1562    -1.8245    -0.9793 C.ar    
   9 C9            -5.5231    -2.0223    -1.0361 C.ar    
  10 C10           -6.2786    -1.9641     0.1201 C.ar    
  11 C11           -5.6670    -1.7085     1.3332 C.ar    
  12 C12           -4.2994    -1.5149     1.3906 C.ar    
  13 C13            1.2553     3.8110    -0.1902 C.3     
  14 C14            2.1550     4.3202     0.9409 C.3     
  15 N15            3.3860     3.5196     0.9813 N.3     
  16 C16            3.0970     2.1132     1.2918 C.3     
  17 C17            2.2356     1.5143     0.1812 C.3     
  18 C18            4.2934     4.0500     1.8818 C.ar    
  19 C19            5.6681     4.0149     1.5916 C.ar    
  20 C20            6.5664     4.5575     2.5177 C.ar    
  21 C21            6.0586     5.1065     3.6820 C.ar    
  22 C22            4.6921     5.1041     3.8969 C.ar    
  23 N23            3.8614     4.5926     3.0094 N.ar    
  24 C24            6.1412     3.4341     0.3711 C.1     
  25 N25            6.5164     2.9734    -0.5971 N.1     
  26 H26            0.1440    -0.1819    -0.6260 H       
  27 H27            0.0369     0.0525     1.1352 H       
  28 H28           -1.5717    -1.9215    -0.4988 H       
  29 H29           -1.6788    -1.6872     1.2624 H       
  30 H30           -3.5660    -1.8701    -1.8826 H       
  31 H31           -6.0009    -2.2220    -1.9838 H       
  32 H32           -7.3466    -2.1179     0.0756 H       
  33 H33           -6.2572    -1.6626     2.2364 H       
  34 H34           -3.8216    -1.3153     2.3383 H       
  35 H35            1.7350     3.9963    -1.1512 H       
  36 H36            0.2942     4.3238    -0.1526 H       
  37 H37            2.4068     5.3657     0.7628 H       
  38 H38            1.6305     4.2289     1.8920 H       
  39 H39            4.0320     1.5580     1.3681 H       
  40 H40            2.5594     2.0526     2.2380 H       
  41 H41            1.9237     0.5083     0.4618 H       
  42 H42            2.8070     1.4782    -0.7463 H       
  43 H43            7.6296     4.5478     2.3284 H       
  44 H44            6.7243     5.5332     4.4177 H       
  45 H45            4.2978     5.5330     4.8063 H       
@<TRIPOS>BOND
   1    1    2 1
   2    1    3 am
   3    1    4 2
   4    2    5 1
   5    2   26 1
   6    2   27 1
   7    3   13 1
   8    3   17 1
   9    5    6 1
  10    6    7 1
  11    6   28 1
  12    6   29 1
  13    7    8 ar
  14    7   12 ar
  15    8    9 ar
  16    8   30 1
  17    9   10 ar
  18    9   31 1
  19   10   11 ar
  20   10   32 1
  21   11   12 ar
  22   11   33 1
  23   12   34 1
  24   13   14 1
  25   13   35 1
  26   13   36 1
  27   14   15 1
  28   14   37 1
  29   14   38 1
  30   15   16 1
  31   15   18 1
  32   16   17 1
  33   16   39 1
  34   16   40 1
  35   17   41 1
  36   17   42 1
  37   18   19 ar
  38   18   23 ar
  39   19   20 ar
  40   19   24 1
  41   20   21 ar
  42   20   43 1
  43   21   22 ar
  44   21   44 1
  45   22   23 ar
  46   22   45 1
  47   24   25 3

#	End of record

