#	Name: ASD00731011
#	Creating user name:	WinNT
#	Creation time:	15. 06. 2019 18:37

#	Modifying user name:	WinNT
#	Modification time:	15. 06. 2019 18:37

#	Program:	/corina/corina34_cracker 3.40 0067  02.08.2006

@<TRIPOS>MOLECULE
ASD00731011
 286  288    0    0    0
SMALL
NO_CHARGES


@<TRIPOS>ATOM
   1 C1           -14.4668    14.2007   -13.4166 C.2     
   2 O2           -14.1654    13.0504   -13.1781 O.2     
   3 N3           -12.0859    14.6505   -13.6012 N.3     
   4 C4           -13.4241    15.1631   -13.9243 C.3     
   5 C5           -13.5614    15.3103   -15.4410 C.3     
   6 C6           -12.5871    16.3793   -15.9399 C.3     
   7 C7           -12.7244    16.5265   -17.4566 C.3     
   8 N8           -11.7915    17.5501   -17.9343 N.pl3   
   9 C9           -11.7351    17.8576   -19.2727 C.2     
  10 N10          -12.4336    17.1691   -20.1288 N.2     
  11 N11          -10.9373    18.8975   -19.7095 N.am    
  12 C12          -18.1147    14.1415   -13.1883 C.2     
  13 O13          -18.2281    15.1536   -13.8469 O.2     
  14 N14          -15.7354    14.6170   -13.2328 N.am    
  15 C15          -16.7503    13.6799   -12.7449 C.3     
  16 C16          -16.7019    13.6257   -11.2167 C.3     
  17 O17          -17.0743    14.8979   -10.6829 O.3     
  18 C18          -21.5860    13.4676   -12.3662 C.2     
  19 O19          -21.2825    12.9105   -11.3325 O.2     
  20 N20          -19.2089    13.4296   -12.8529 N.am    
  21 C21          -20.5221    13.8151   -13.3753 C.3     
  22 C22          -20.7923    13.0639   -14.6805 C.3     
  23 C23          -20.6120    11.5620   -14.4512 C.3     
  24 C24          -21.7284    11.0475   -13.5403 C.3     
  25 C25          -19.8105    13.5374   -15.7542 C.3     
  26 C26          -25.2381    13.3677   -12.2419 C.2     
  27 O27          -25.3366    13.4323   -13.4490 O.2     
  28 N28          -22.8748    13.7758   -12.6124 N.am    
  29 C29          -23.8929    13.5421   -11.5853 C.3     
  30 C30          -23.9413    14.7390   -10.6335 C.3     
  31 C31          -22.6167    14.8409    -9.8745 C.3     
  32 C32          -22.6651    16.0378    -8.9227 C.3     
  33 N33          -21.3968    16.1355    -8.1960 N.pl3   
  34 C34          -21.2060    17.1412    -7.2782 C.2     
  35 N35          -22.1536    18.0077    -7.0546 N.2     
  36 N36          -20.0158    17.2328    -6.5963 N.pl3   
  37 C37          -28.7265    13.3386   -11.1495 C.2     
  38 O38          -28.4374    13.7063   -10.0305 O.2     
  39 N39          -26.3316    13.1400   -11.4877 N.am    
  40 C40          -27.6393    12.9705   -12.1261 C.3     
  41 C41          -27.8120    11.5122   -12.5556 C.3     
  42 O42          -27.8451    10.6753   -11.3978 O.3     
  43 C43          -32.3500    12.9019   -10.9429 C.2     
  44 O44          -32.3723    12.1658   -11.9066 O.2     
  45 N45          -30.0200    13.2591   -11.5197 N.am    
  46 C46          -31.0768    13.6170   -10.5703 C.3     
  47 C47          -31.3099    15.1285   -10.6124 C.3     
  48 C48          -30.0568    15.8518   -10.1147 C.3     
  49 C49          -30.2428    17.3621   -10.2735 C.3     
  50 C50          -29.8278    15.5185    -8.6391 C.3     
  51 C51          -35.8838    13.1586   -10.0435 C.2     
  52 O52          -35.7098    14.1891    -9.4281 O.2     
  53 N53          -33.4637    13.0803   -10.2053 N.am    
  54 C54          -34.7014    12.3851   -10.5675 C.3     
  55 C55          -34.6970    10.9832    -9.9547 C.3     
  56 C56          -33.5709    10.1570   -10.5795 C.3     
  57 C57          -33.5665     8.7551    -9.9668 C.3     
  58 N58          -32.4883     7.9641   -10.5651 N.pl3   
  59 C59          -32.2886     6.6630   -10.1681 C.2     
  60 N60          -31.3293     5.9592   -10.7005 N.2     
  61 N61          -33.1006     6.1044    -9.2097 N.pl3   
  62 C62          -38.5373    13.3111    -8.3733 C.2     
  63 O63          -37.8236    12.5695    -7.7318 O.2     
  64 N64          -37.1347    12.7053   -10.2587 N.am    
  65 C65          -38.2868    13.5105    -9.8460 C.3     
  66 C66          -39.5224    13.0759   -10.6368 C.3     
  67 C67          -39.3041    13.3532   -12.1019 C.2     
  68 O68          -38.2321    13.7693   -12.4872 O.2     
  69 N69          -40.3003    13.1389   -12.9840 N.am    
  70 C70          -41.2456    14.0481    -6.0313 C.2     
  71 O71          -41.9997    14.3802    -6.9211 O.2     
  72 N72          -39.5543    13.9570    -7.7693 N.am    
  73 C73          -39.7978    13.7632    -6.3377 C.3     
  74 C74          -38.9096    14.7166    -5.5357 C.3     
  75 C75          -39.2371    16.1615    -5.9177 C.3     
  76 C76          -38.4395    17.1174    -5.0283 C.3     
  77 C77          -37.4398    14.4274    -5.8468 C.3     
  78 C78          -43.1310    14.8368    -3.0271 C.2     
  79 O79          -42.1346    14.8156    -2.3360 O.2     
  80 N80          -41.7023    13.9337    -4.7685 N.am    
  81 C81          -43.0743    14.3340    -4.4466 C.3     
  82 C82          -44.0058    13.1299    -4.5988 C.3     
  83 C83          -43.4728    11.9640    -3.7636 C.3     
  84 C84          -43.7137    12.2476    -2.2796 C.3     
  85 C85          -44.0685    12.7163    -6.0705 C.3     
  86 C86          -45.7098    15.7883    -0.6172 C.2     
  87 O87          -46.5891    15.2627    -1.2663 O.2     
  88 N88          -44.2890    15.3100    -2.5256 N.am    
  89 C89          -44.3191    15.9032    -1.1864 C.3     
  90 C90          -43.9239    17.3787    -1.2733 C.3     
  91 C91          -42.4908    17.4891    -1.7261 C.2     
  92 C92          -42.0475    18.1925    -2.7854 C.2     
  93 N93          -40.6903    18.0216    -2.8345 N.pl3   
  94 C94          -40.3512    17.2191    -1.8027 C.2     
  95 N95          -41.4325    16.9086    -1.1412 N.2     
  96 C96          -48.1636    17.3180     0.6892 C.2     
  97 O97          -47.6777    18.1554    -0.0411 O.2     
  98 N98          -45.9763    16.2698     0.6131 N.am    
  99 C99          -47.3282    16.1581     1.1664 C.3     
 100 C100         -47.2568    16.1756     2.6946 C.3     
 101 C101         -46.5259    14.9493     3.1774 C.2     
 102 C102         -47.0809    13.7923     3.5714 C.2     
 103 N103         -46.1041    12.9083     3.9412 N.pl3   
 104 C104         -44.8651    13.4897     3.7904 C.ar    
 105 C105         -43.5659    13.0469     4.0147 C.ar    
 106 C106         -42.5033    13.8865     3.7605 C.ar    
 107 C107         -42.7155    15.1719     3.2821 C.ar    
 108 C108         -43.9837    15.6276     3.0551 C.ar    
 109 C109         -45.0746    14.7917     3.2998 C.ar    
 110 C110         -50.0444    19.7356     1.5174 C.2     
 111 O111         -49.2879    19.6462     2.4552 O.2     
 112 N112         -49.4509    17.4247     1.0741 N.am    
 113 C113         -50.2631    18.5522     0.6102 C.3     
 114 C114         -51.7415    18.1590     0.6322 C.3     
 115 C115         -51.9829    17.0563    -0.3663 C.2     
 116 O116         -51.0631    16.6273    -1.0301 O.2     
 117 N117         -53.2210    16.5470    -0.5215 N.am    
 118 O118         -50.6903    20.8888     1.2836 O.3     
 119 C119         -10.3085    19.6860   -18.8154 C.2     
 120 O120         -10.3772    19.4343   -17.6313 O.2     
 121 C121           0.3398    34.3995   -14.1987 C.3     
 122 C122          -0.4606    33.1868   -13.7195 C.3     
 123 C123          -1.0687    32.4682   -14.9256 C.3     
 124 C124          -1.8691    31.2555   -14.4465 C.3     
 125 C125          -2.4773    30.5369   -15.6526 C.3     
 126 C126          -3.2777    29.3242   -15.1734 C.3     
 127 C127          -3.8859    28.6056   -16.3795 C.3     
 128 C128          -4.6863    27.3929   -15.9004 C.3     
 129 C129          -5.2945    26.6744   -17.1065 C.3     
 130 C130          -6.0948    25.4616   -16.6273 C.3     
 131 C131          -6.7030    24.7431   -17.8334 C.3     
 132 C132          -7.5034    23.5303   -17.3543 C.3     
 133 C133          -8.1116    22.8118   -18.5604 C.3     
 134 C134          -8.9120    21.5991   -18.0813 C.3     
 135 C135          -9.5202    20.8805   -19.2874 C.3     
 136 H136         -11.9473    14.6052   -12.6028 H       
 137 H137         -11.9306    13.7499   -14.0290 H       
 138 H138         -13.5651    16.1347   -13.4507 H       
 139 H139         -13.3331    14.3584   -15.9205 H       
 140 H140         -14.5815    15.6054   -15.6865 H       
 141 H141         -12.8153    17.3311   -15.4603 H       
 142 H142         -11.5669    16.0841   -15.6944 H       
 143 H143         -12.4961    15.5746   -17.9362 H       
 144 H144         -13.7445    16.8216   -17.7021 H       
 145 H145         -11.2136    18.0107   -17.3061 H       
 146 H146         -12.4510    17.4309   -21.0627 H       
 147 H147         -10.8297    19.0602   -20.6597 H       
 148 H148         -15.9764    15.5370   -13.4235 H       
 149 H149         -16.5532    12.6874   -13.1501 H       
 150 H150         -17.3946    12.8644   -10.8580 H       
 151 H151         -15.6908    13.3781   -10.8937 H       
 152 H152         -17.0658    14.9368    -9.7167 H       
 153 H153         -19.1268    12.6620   -12.2655 H       
 154 H154         -20.5372    14.8885   -13.5641 H       
 155 H155         -21.8127    13.2614   -15.0089 H       
 156 H156         -20.6542    11.0407   -15.4076 H       
 157 H157         -19.6459    11.3797   -13.9805 H       
 158 H158         -22.6924    11.3850   -13.9209 H       
 159 H159         -21.7073     9.9579   -13.5195 H       
 160 H160         -21.5809    11.4330   -12.5315 H       
 161 H161         -18.7894    13.4090   -15.3948 H       
 162 H162         -19.9530    12.9501   -16.6613 H       
 163 H163         -19.9895    14.5904   -15.9713 H       
 164 H164         -23.1281    14.1524   -13.4696 H       
 165 H165         -23.6430    12.6416   -11.0242 H       
 166 H166         -24.1032    15.6522   -11.2060 H       
 167 H167         -24.7575    14.6058    -9.9234 H       
 168 H168         -22.4548    13.9277    -9.3019 H       
 169 H169         -21.8005    14.9741   -10.5846 H       
 170 H170         -22.8270    16.9511    -9.4953 H       
 171 H171         -23.4813    15.9046    -8.2127 H       
 172 H172         -20.6916    15.4906    -8.3624 H       
 173 H173         -22.0191    18.7173    -6.4071 H       
 174 H174         -19.3106    16.5879    -6.7627 H       
 175 H175         -19.8812    17.9423    -5.9487 H       
 176 H176         -26.2528    13.0883   -10.5223 H       
 177 H177         -27.7029    13.6170   -13.0013 H       
 178 H178         -28.7450    11.4044   -13.1087 H       
 179 H179         -26.9766    11.2195   -13.1917 H       
 180 H180         -27.9528     9.7348   -11.5953 H       
 181 H181         -30.2512    12.9650   -12.4146 H       
 182 H182         -30.7763    13.3236    -9.5645 H       
 183 H183         -31.5235    15.4348   -11.6365 H       
 184 H184         -32.1549    15.3838    -9.9730 H       
 185 H185         -29.1948    15.5285   -10.6982 H       
 186 H186         -31.1048    17.6854    -9.6900 H       
 187 H187         -29.3501    17.8774    -9.9190 H       
 188 H188         -30.4059    17.5995   -11.3248 H       
 189 H189         -30.6899    15.8418    -8.0556 H       
 190 H190         -29.6954    14.4425    -8.5260 H       
 191 H191         -28.9352    16.0338    -8.2845 H       
 192 H192         -33.4459    13.6690    -9.4345 H       
 193 H193         -34.7701    12.3072   -11.6525 H       
 194 H194         -34.5391    11.0575    -8.8787 H       
 195 H195         -35.6539    10.4987   -10.1489 H       
 196 H196         -33.7288    10.0828   -11.6555 H       
 197 H197         -32.6140    10.6415   -10.3853 H       
 198 H198         -33.4086     8.8294    -8.8908 H       
 199 H199         -34.5234     8.2707   -10.1610 H       
 200 H200         -31.9154     8.3582   -11.2413 H       
 201 H201         -31.1884     5.0413   -10.4204 H       
 202 H202         -33.8145     6.6281    -8.8135 H       
 203 H203         -32.9597     5.1864    -8.9296 H       
 204 H204         -37.2720    11.8458   -10.6870 H       
 205 H205         -38.0827    14.5634   -10.0405 H       
 206 H206         -39.6909    12.0090   -10.4902 H       
 207 H207         -40.3918    13.6326   -10.2872 H       
 208 H208         -41.1578    12.8061   -12.6759 H       
 209 H209         -40.1599    13.3174   -13.9271 H       
 210 H210         -40.1251    14.5502    -8.2824 H       
 211 H211         -39.5645    12.7339    -6.0656 H       
 212 H212         -39.0908    14.5724    -4.4706 H       
 213 H213         -38.9724    16.3302    -6.9615 H       
 214 H214         -40.3033    16.3411    -5.7796 H       
 215 H215         -37.3733    16.9378    -5.1664 H       
 216 H216         -38.6727    18.1468    -5.3005 H       
 217 H217         -38.7042    16.9487    -3.9845 H       
 218 H218         -36.8070    15.1066    -5.2754 H       
 219 H219         -37.2065    13.3980    -5.5746 H       
 220 H220         -37.2586    14.5716    -6.9119 H       
 221 H221         -41.1225    13.5863    -4.0727 H       
 222 H222         -43.3904    15.1260    -5.1255 H       
 223 H223         -45.0046    13.3973    -4.2537 H       
 224 H224         -43.9904    11.0475    -4.0471 H       
 225 H225         -42.4039    11.8477    -3.9425 H       
 226 H226         -44.7817    12.3757    -2.1029 H       
 227 H227         -43.3449    11.4116    -1.6853 H       
 228 H228         -43.1863    13.1575    -1.9933 H       
 229 H229         -43.0660    12.4728    -6.4225 H       
 230 H230         -44.7125    11.8431    -6.1754 H       
 231 H231         -44.4716    13.5383    -6.6620 H       
 232 H232         -45.1025    15.2577    -3.0513 H       
 233 H233         -43.6172    15.3765    -0.5398 H       
 234 H234         -44.5710    17.8867    -1.9883 H       
 235 H235         -44.0318    17.8421    -0.2926 H       
 236 H236         -42.6476    18.7786    -3.4658 H       
 237 H237         -40.0851    18.4052    -3.4883 H       
 238 H238         -39.3505    16.8918    -1.5623 H       
 239 H239         -45.2729    16.6902     1.1322 H       
 240 H240         -47.7805    15.2236     0.8344 H       
 241 H241         -46.7250    17.0685     3.0233 H       
 242 H242         -48.2664    16.1821     3.1054 H       
 243 H243         -48.1414    13.5894     3.5935 H       
 244 H244         -46.2611    12.0064     4.2618 H       
 245 H245         -43.3904    12.0485     4.3872 H       
 246 H246         -41.4951    13.5409     3.9357 H       
 247 H247         -41.8716    15.8174     3.0880 H       
 248 H248         -44.1412    16.6292     2.6831 H       
 249 H249         -49.8395    16.7549     1.6582 H       
 250 H250         -49.9722    18.8154    -0.4068 H       
 251 H251         -52.0101    17.8111     1.6297 H       
 252 H252         -52.3515    19.0242     0.3726 H       
 253 H253         -53.9567    16.8902     0.0094 H       
 254 H254         -53.3764    15.8373    -1.1642 H       
 255 H255         -50.5178    21.6198     1.8927 H       
 256 H256           1.1369    34.0687   -14.8645 H       
 257 H257          -0.3204    35.0823   -14.7335 H       
 258 H258           0.7731    34.9114   -13.3394 H       
 259 H259           0.1996    32.5040   -13.1847 H       
 260 H260          -1.2577    33.5175   -13.0537 H       
 261 H261          -1.7289    33.1510   -15.4604 H       
 262 H262          -0.2716    32.1375   -15.5914 H       
 263 H263          -1.2089    30.5727   -13.9117 H       
 264 H264          -2.6662    31.5862   -13.7807 H       
 265 H265          -3.1375    31.2197   -16.1874 H       
 266 H266          -1.6802    30.2062   -16.3184 H       
 267 H267          -2.6175    28.6414   -14.6386 H       
 268 H268          -4.0748    29.6550   -14.5076 H       
 269 H269          -4.5461    29.2885   -16.9143 H       
 270 H270          -3.0888    28.2749   -17.0453 H       
 271 H271          -4.0261    26.7101   -15.3656 H       
 272 H272          -5.4834    27.7237   -15.2346 H       
 273 H273          -5.9547    27.3572   -17.6413 H       
 274 H274          -4.4973    26.3436   -17.7723 H       
 275 H275          -5.4346    24.7788   -16.0926 H       
 276 H276          -6.8920    25.7924   -15.9615 H       
 277 H277          -7.3632    25.4259   -18.3682 H       
 278 H278          -5.9059    24.4123   -18.4993 H       
 279 H279          -6.8432    22.8475   -16.8195 H       
 280 H280          -8.3005    23.8611   -16.6885 H       
 281 H281          -8.7718    23.4946   -19.0952 H       
 282 H282          -7.3145    22.4810   -19.2262 H       
 283 H283          -8.2518    20.9162   -17.5465 H       
 284 H284          -9.7091    21.9298   -17.4154 H       
 285 H285          -8.7231    20.5497   -19.9532 H       
 286 H286         -10.1804    21.5633   -19.8221 H       
@<TRIPOS>BOND
   1    1    2 2
   2    1    4 1
   3    1   14 am
   4    3    4 1
   5    3  136 1
   6    3  137 1
   7    4    5 1
   8    4  138 1
   9    5    6 1
  10    5  139 1
  11    5  140 1
  12    6    7 1
  13    6  141 1
  14    6  142 1
  15    7    8 1
  16    7  143 1
  17    7  144 1
  18    8    9 1
  19    8  145 1
  20    9   10 2
  21    9   11 1
  22   10  146 1
  23   11  119 am
  24   11  147 1
  25   12   13 2
  26   12   15 1
  27   12   20 am
  28   14   15 1
  29   14  148 1
  30   15   16 1
  31   15  149 1
  32   16   17 1
  33   16  150 1
  34   16  151 1
  35   17  152 1
  36   18   19 2
  37   18   21 1
  38   18   28 am
  39   20   21 1
  40   20  153 1
  41   21   22 1
  42   21  154 1
  43   22   23 1
  44   22   25 1
  45   22  155 1
  46   23   24 1
  47   23  156 1
  48   23  157 1
  49   24  158 1
  50   24  159 1
  51   24  160 1
  52   25  161 1
  53   25  162 1
  54   25  163 1
  55   26   27 2
  56   26   29 1
  57   26   39 am
  58   28   29 1
  59   28  164 1
  60   29   30 1
  61   29  165 1
  62   30   31 1
  63   30  166 1
  64   30  167 1
  65   31   32 1
  66   31  168 1
  67   31  169 1
  68   32   33 1
  69   32  170 1
  70   32  171 1
  71   33   34 1
  72   33  172 1
  73   34   35 2
  74   34   36 1
  75   35  173 1
  76   36  174 1
  77   36  175 1
  78   37   38 2
  79   37   40 1
  80   37   45 am
  81   39   40 1
  82   39  176 1
  83   40   41 1
  84   40  177 1
  85   41   42 1
  86   41  178 1
  87   41  179 1
  88   42  180 1
  89   43   44 2
  90   43   46 1
  91   43   53 am
  92   45   46 1
  93   45  181 1
  94   46   47 1
  95   46  182 1
  96   47   48 1
  97   47  183 1
  98   47  184 1
  99   48   49 1
 100   48   50 1
 101   48  185 1
 102   49  186 1
 103   49  187 1
 104   49  188 1
 105   50  189 1
 106   50  190 1
 107   50  191 1
 108   51   52 2
 109   51   54 1
 110   51   64 am
 111   53   54 1
 112   53  192 1
 113   54   55 1
 114   54  193 1
 115   55   56 1
 116   55  194 1
 117   55  195 1
 118   56   57 1
 119   56  196 1
 120   56  197 1
 121   57   58 1
 122   57  198 1
 123   57  199 1
 124   58   59 1
 125   58  200 1
 126   59   60 2
 127   59   61 1
 128   60  201 1
 129   61  202 1
 130   61  203 1
 131   62   63 2
 132   62   65 1
 133   62   72 am
 134   64   65 1
 135   64  204 1
 136   65   66 1
 137   65  205 1
 138   66   67 1
 139   66  206 1
 140   66  207 1
 141   67   68 2
 142   67   69 am
 143   69  208 1
 144   69  209 1
 145   70   71 2
 146   70   73 1
 147   70   80 am
 148   72   73 1
 149   72  210 1
 150   73   74 1
 151   73  211 1
 152   74   75 1
 153   74   77 1
 154   74  212 1
 155   75   76 1
 156   75  213 1
 157   75  214 1
 158   76  215 1
 159   76  216 1
 160   76  217 1
 161   77  218 1
 162   77  219 1
 163   77  220 1
 164   78   79 2
 165   78   81 1
 166   78   88 am
 167   80   81 1
 168   80  221 1
 169   81   82 1
 170   81  222 1
 171   82   83 1
 172   82   85 1
 173   82  223 1
 174   83   84 1
 175   83  224 1
 176   83  225 1
 177   84  226 1
 178   84  227 1
 179   84  228 1
 180   85  229 1
 181   85  230 1
 182   85  231 1
 183   86   87 2
 184   86   89 1
 185   86   98 am
 186   88   89 1
 187   88  232 1
 188   89   90 1
 189   89  233 1
 190   90   91 1
 191   90  234 1
 192   90  235 1
 193   91   92 2
 194   91   95 1
 195   92   93 1
 196   92  236 1
 197   93   94 1
 198   93  237 1
 199   94   95 2
 200   94  238 1
 201   96   97 2
 202   96   99 1
 203   96  112 am
 204   98   99 1
 205   98  239 1
 206   99  100 1
 207   99  240 1
 208  100  101 1
 209  100  241 1
 210  100  242 1
 211  101  102 2
 212  101  109 1
 213  102  103 1
 214  102  243 1
 215  103  104 1
 216  103  244 1
 217  104  105 ar
 218  104  109 ar
 219  105  106 ar
 220  105  245 1
 221  106  107 ar
 222  106  246 1
 223  107  108 ar
 224  107  247 1
 225  108  109 ar
 226  108  248 1
 227  110  111 2
 228  110  113 1
 229  110  118 1
 230  112  113 1
 231  112  249 1
 232  113  114 1
 233  113  250 1
 234  114  115 1
 235  114  251 1
 236  114  252 1
 237  115  116 2
 238  115  117 am
 239  117  253 1
 240  117  254 1
 241  118  255 1
 242  119  120 2
 243  119  135 1
 244  121  122 1
 245  121  256 1
 246  121  257 1
 247  121  258 1
 248  122  123 1
 249  122  259 1
 250  122  260 1
 251  123  124 1
 252  123  261 1
 253  123  262 1
 254  124  125 1
 255  124  263 1
 256  124  264 1
 257  125  126 1
 258  125  265 1
 259  125  266 1
 260  126  127 1
 261  126  267 1
 262  126  268 1
 263  127  128 1
 264  127  269 1
 265  127  270 1
 266  128  129 1
 267  128  271 1
 268  128  272 1
 269  129  130 1
 270  129  273 1
 271  129  274 1
 272  130  131 1
 273  130  275 1
 274  130  276 1
 275  131  132 1
 276  131  277 1
 277  131  278 1
 278  132  133 1
 279  132  279 1
 280  132  280 1
 281  133  134 1
 282  133  281 1
 283  133  282 1
 284  134  135 1
 285  134  283 1
 286  134  284 1
 287  135  285 1
 288  135  286 1

#	End of record

