#	Name: ASD03082397
#	Creating user name:	WinNT
#	Creation time:	15. 06. 2019 20:27

#	Modifying user name:	WinNT
#	Modification time:	15. 06. 2019 20:27

#	Program:	/corina/corina34_cracker 3.40 0067  02.08.2006

@<TRIPOS>MOLECULE
ASD03082397
  45   47    0    0    0
SMALL
NO_CHARGES


@<TRIPOS>ATOM
   1 C1             0.8880     3.2557    -0.1896 C.ar    
   2 C2             1.9838     4.0802     0.0296 C.ar    
   3 C3             1.8185     5.4511     0.0713 C.ar    
   4 C4             0.5636     6.0044    -0.1050 C.ar    
   5 C5            -0.5319     5.1875    -0.3238 C.ar    
   6 Cl6           -2.1053     5.8869    -0.5452 Cl      
   7 N7             1.0528     1.8675    -0.2317 N.pl3   
   8 C8             2.3378     1.3152    -0.2239 C.2     
   9 C9             2.6460    -0.0538    -0.1445 C.2     
  10 N10            3.4640     1.9855    -0.2951 N.2     
  11 N11            4.5223     1.0684    -0.2582 N.pl3   
  12 C12            3.9918    -0.1790    -0.1655 C.2     
  13 C13            5.8839     1.3813    -0.3114 C.ar    
  14 C14            6.7772     0.5696    -1.0081 C.ar    
  15 C15            6.3820     2.5160     0.3262 C.ar    
  16 C16            7.7322     2.7899     0.2496 C.ar    
  17 N17            8.5471     1.9939    -0.4164 N.ar    
  18 C18            8.1132     0.9133    -1.0369 C.ar    
  19 C19            8.2830     4.0139     0.9347 C.3     
  20 C20            9.0900     0.0404    -1.7819 C.3     
  21 C21            4.7652    -1.4706    -0.0978 C.3     
  22 C22            4.8483    -2.0792    -1.4740 C.2     
  23 C23           -0.3743     3.8132    -0.3615 C.ar    
  24 O24            5.4954    -3.2410    -1.6561 O.3     
  25 C25            5.5355    -3.7682    -3.0084 C.3     
  26 O26            4.3325    -1.5212    -2.4134 O.2     
  27 F27           -1.4432     3.0151    -0.5755 F       
  28 H28            2.9646     3.6499     0.1679 H       
  29 H29            2.6709     6.0918     0.2422 H       
  30 H30            0.4381     7.0766    -0.0715 H       
  31 H31            0.2759     1.2877    -0.2663 H       
  32 H32            1.9335    -0.8628    -0.0779 H       
  33 H33            6.4286    -0.3163    -1.5181 H       
  34 H34            5.7204     3.1720     0.8723 H       
  35 H35            8.5758     3.7593     1.9533 H       
  36 H36            9.1526     4.3767     0.3867 H       
  37 H37            7.5191     4.7910     0.9597 H       
  38 H38            9.4821    -0.7223    -1.1091 H       
  39 H39            8.5832    -0.4394    -2.6192 H       
  40 H40            9.9112     0.6516    -2.1562 H       
  41 H41            5.7708    -1.2730     0.2734 H       
  42 H42            4.2589    -2.1624     0.5754 H       
  43 H43            4.5188    -3.9408    -3.3613 H       
  44 H44            6.0308    -3.0514    -3.6633 H       
  45 H45            6.0871    -4.7083    -3.0156 H       
@<TRIPOS>BOND
   1    1    2 ar
   2    1    7 1
   3    1   23 ar
   4    2    3 ar
   5    2   28 1
   6    3    4 ar
   7    3   29 1
   8    4    5 ar
   9    4   30 1
  10    5   23 ar
  11    5    6 1
  12    7    8 1
  13    7   31 1
  14    8    9 1
  15    8   10 2
  16    9   12 2
  17    9   32 1
  18   10   11 1
  19   11   12 1
  20   11   13 1
  21   12   21 1
  22   13   14 ar
  23   13   15 ar
  24   14   18 ar
  25   14   33 1
  26   15   16 ar
  27   15   34 1
  28   16   17 ar
  29   16   19 1
  30   17   18 ar
  31   18   20 1
  32   19   35 1
  33   19   36 1
  34   19   37 1
  35   20   38 1
  36   20   39 1
  37   20   40 1
  38   21   22 1
  39   21   41 1
  40   21   42 1
  41   22   24 1
  42   22   26 2
  43   23   27 1
  44   24   25 1
  45   25   43 1
  46   25   44 1
  47   25   45 1

#	End of record

