#	Name: ASD05723023
#	Creating user name:	WinNT
#	Creation time:	15. 06. 2019 21:02

#	Modifying user name:	WinNT
#	Modification time:	15. 06. 2019 21:02

#	Program:	/corina/corina34_cracker 3.40 0067  02.08.2006

@<TRIPOS>MOLECULE
ASD05723023
  71   76    0    0    0
SMALL
NO_CHARGES


@<TRIPOS>ATOM
   1 N1             0.0064     1.2957     0.2006 N.ar    
   2 C2             0.0080    -0.0149    -0.0250 C.ar    
   3 N3             1.1199    -0.6925    -0.2624 N.ar    
   4 C4             2.2982    -0.0752    -0.2848 C.ar    
   5 C5             2.3446     1.3141    -0.0514 C.ar    
   6 C6             1.1349     1.9932     0.1974 C.ar    
   7 N7             1.1244     3.3544     0.4318 N.3     
   8 C8            -0.2441     3.8385     0.6646 C.3     
   9 C9            -0.2033     5.3364     0.9783 C.3     
  10 O10            0.4394     6.0263    -0.0970 O.3     
  11 C11            1.7744     5.5804    -0.3508 C.3     
  12 C12            1.7537     4.0849    -0.6780 C.3     
  13 N13            3.5845    -0.4771    -0.4938 N.pl3   
  14 N14            4.4163     0.6451    -0.3918 N.2     
  15 C15            3.6992     1.7014    -0.1324 C.2     
  16 C16            4.0211    -1.8466    -0.7765 C.3     
  17 C17            4.7246    -1.8892    -2.1358 C.3     
  18 C18            5.2318    -3.3091    -2.3980 C.3     
  19 N19            6.1626    -3.7023    -1.3324 N.3     
  20 C20            5.4968    -3.7146    -0.0236 C.3     
  21 C21            4.9975    -2.3068     0.3095 C.3     
  22 C22            6.7758    -5.0051    -1.6233 C.3     
  23 C23           -1.2821    -0.7432    -0.0095 C.ar    
  24 C24           -1.3109    -2.1183    -0.2429 C.ar    
  25 C25           -2.5121    -2.7935    -0.2275 C.ar    
  26 C26           -3.6945    -2.1055     0.0203 C.ar    
  27 C27           -3.6685    -0.7351     0.2527 C.ar    
  28 C28           -2.4694    -0.0562     0.2441 C.ar    
  29 N29           -4.9109    -2.7924     0.0354 N.am    
  30 C30           -4.9700    -4.0477     0.5226 C.2     
  31 O31           -6.1569    -4.6752     0.6240 O.3     
  32 O32           -3.9522    -4.6130     0.8702 O.2     
  33 C33           -6.1451    -6.0257     1.1574 C.3     
  34 C34            7.8953    -5.2624    -0.6479 C.ar    
  35 C35            7.6461    -5.9114     0.5515 C.ar    
  36 C36            8.7069    -6.1270     1.4181 C.ar    
  37 C37            9.9683    -5.6910     1.0601 C.ar    
  38 N38           10.1685    -5.0763    -0.0895 N.ar    
  39 C39            9.1848    -4.8594    -0.9403 C.ar    
  40 H40           -0.8465     3.6698    -0.2280 H       
  41 H41           -0.6816     3.3020     1.5065 H       
  42 H42           -1.2200     5.7115     1.0953 H       
  43 H43            0.3541     5.5000     1.9006 H       
  44 H44            2.1880     6.1320    -1.1950 H       
  45 H45            2.3893     5.7512     0.5328 H       
  46 H46            2.7744     3.7284    -0.8161 H       
  47 H47            1.1832     3.9202    -1.5921 H       
  48 H48            4.0776     2.7044    -0.0018 H       
  49 H49            3.1553    -2.5087    -0.7935 H       
  50 H50            4.0218    -1.6035    -2.9184 H       
  51 H51            5.5666    -1.1970    -2.1316 H       
  52 H52            4.3878    -3.9987    -2.4158 H       
  53 H53            5.7458    -3.3396    -3.3587 H       
  54 H54            4.6516    -4.4023    -0.0525 H       
  55 H55            6.2032    -4.0396     0.7402 H       
  56 H56            5.8438    -1.6212     0.3522 H       
  57 H57            4.4897    -2.3195     1.2739 H       
  58 H58            6.0246    -5.7894    -1.5294 H       
  59 H59            7.1722    -5.0015    -2.6387 H       
  60 H60           -0.3927    -2.6532    -0.4358 H       
  61 H61           -2.5350    -3.8580    -0.4084 H       
  62 H62           -4.5885    -0.2028     0.4443 H       
  63 H63           -2.4497     1.0084     0.4251 H       
  64 H64           -5.7130    -2.3659    -0.3047 H       
  65 H65           -5.7326    -6.0143     2.1663 H       
  66 H66           -7.1631    -6.4142     1.1855 H       
  67 H67           -5.5306    -6.6624     0.5208 H       
  68 H68            6.6493    -6.2409     0.8050 H       
  69 H69            8.5492    -6.6291     2.3612 H       
  70 H70           10.7997    -5.8550     1.7295 H       
  71 H71            9.3872    -4.3526    -1.8723 H       
@<TRIPOS>BOND
   1    1    2 ar
   2    1    6 ar
   3    2    3 ar
   4    2   23 1
   5    3    4 ar
   6    4    5 ar
   7    4   13 1
   8    5    6 ar
   9    5   15 1
  10    6    7 1
  11    7    8 1
  12    7   12 1
  13    8    9 1
  14    8   40 1
  15    8   41 1
  16    9   10 1
  17    9   42 1
  18    9   43 1
  19   10   11 1
  20   11   12 1
  21   11   44 1
  22   11   45 1
  23   12   46 1
  24   12   47 1
  25   13   14 1
  26   13   16 1
  27   14   15 2
  28   15   48 1
  29   16   17 1
  30   16   21 1
  31   16   49 1
  32   17   18 1
  33   17   50 1
  34   17   51 1
  35   18   19 1
  36   18   52 1
  37   18   53 1
  38   19   20 1
  39   19   22 1
  40   20   21 1
  41   20   54 1
  42   20   55 1
  43   21   56 1
  44   21   57 1
  45   22   34 1
  46   22   58 1
  47   22   59 1
  48   23   24 ar
  49   23   28 ar
  50   24   25 ar
  51   24   60 1
  52   25   26 ar
  53   25   61 1
  54   26   27 ar
  55   26   29 1
  56   27   28 ar
  57   27   62 1
  58   28   63 1
  59   29   30 am
  60   29   64 1
  61   30   31 1
  62   30   32 2
  63   31   33 1
  64   33   65 1
  65   33   66 1
  66   33   67 1
  67   34   35 ar
  68   34   39 ar
  69   35   36 ar
  70   35   68 1
  71   36   37 ar
  72   36   69 1
  73   37   38 ar
  74   37   70 1
  75   38   39 ar
  76   39   71 1

#	End of record

