#	Name: ASD01230101
#	Creating user name:	WinNT
#	Creation time:	15. 06. 2019 19:11

#	Modifying user name:	WinNT
#	Modification time:	15. 06. 2019 19:11

#	Program:	/corina/corina34_cracker 3.40 0067  02.08.2006

@<TRIPOS>MOLECULE
ASD01230101
  37   40    0    0    0
SMALL
NO_CHARGES


@<TRIPOS>ATOM
   1 N1            -0.0170     1.3939     0.0134 N.am    
   2 C2             0.0015    -0.0037    -0.0029 C.2     
   3 N3            -1.0267    -0.7290     0.5483 N.pl3   
   4 C4            -2.1331    -0.0939     1.1212 C.ar    
   5 C5            -2.2942     1.2733     0.9121 C.ar    
   6 C6            -1.3355     2.0464     0.0490 C.3     
   7 C7             0.9041    -0.8714    -0.4916 C.2     
   8 C8             0.4314    -2.1754    -0.2270 C.2     
   9 N9            -0.7272    -2.0767     0.4003 N.2     
  10 C10           -3.0490    -0.7987     1.8837 C.ar    
  11 C11           -4.1191    -0.1382     2.4577 C.ar    
  12 C12           -4.2693     1.2233     2.2696 C.ar    
  13 C13           -3.3610     1.9265     1.5008 C.ar    
  14 C14            1.1179    -3.4395    -0.5909 C.ar    
  15 C15            1.1232     2.1125     0.0027 C.2     
  16 C16            0.5404    -4.6664    -0.2700 C.ar    
  17 C17            1.1835    -5.8390    -0.6109 C.ar    
  18 C18            2.3992    -5.7980    -1.2695 C.ar    
  19 C19            2.9770    -4.5829    -1.5904 C.ar    
  20 C20            2.3398    -3.4041    -1.2599 C.ar    
  21 O21            2.1952     1.5500     0.0776 O.2     
  22 C22            1.0661     3.6147    -0.1025 C.3     
  23 H23           -1.2298     3.0562     0.4455 H       
  24 H24           -1.7293     2.0996    -0.9660 H       
  25 H25            1.8248    -0.6172    -0.9957 H       
  26 H26           -2.9278    -1.8620     2.0293 H       
  27 H27           -4.8366    -0.6847     3.0517 H       
  28 H28           -5.1009     1.7401     2.7255 H       
  29 H29           -3.4851     2.9900     1.3594 H       
  30 H30           -0.4084    -4.6995     0.2448 H       
  31 H31            0.7368    -6.7905    -0.3627 H       
  32 H32            2.8992    -6.7181    -1.5337 H       
  33 H33            3.9265    -4.5566    -2.1043 H       
  34 H34            2.7916    -2.4559    -1.5113 H       
  35 H35            0.0334     3.9295    -0.2522 H       
  36 H36            1.4516     4.0581     0.8156 H       
  37 H37            1.6721     3.9431    -0.9469 H       
@<TRIPOS>BOND
   1    1    2 1
   2    1   15 am
   3    1    6 1
   4    2    3 1
   5    2    7 2
   6    3    4 1
   7    3    9 1
   8    4    5 ar
   9    4   10 ar
  10    5    6 1
  11    5   13 ar
  12    6   23 1
  13    6   24 1
  14    7    8 1
  15    7   25 1
  16    8    9 2
  17    8   14 1
  18   10   11 ar
  19   10   26 1
  20   11   12 ar
  21   11   27 1
  22   12   13 ar
  23   12   28 1
  24   13   29 1
  25   14   16 ar
  26   14   20 ar
  27   15   21 2
  28   15   22 1
  29   16   17 ar
  30   16   30 1
  31   17   18 ar
  32   17   31 1
  33   18   19 ar
  34   18   32 1
  35   19   20 ar
  36   19   33 1
  37   20   34 1
  38   22   35 1
  39   22   36 1
  40   22   37 1

#	End of record

