#	Name: ASD01190177
#	Creating user name:	WinNT
#	Creation time:	15. 06. 2019 19:07

#	Modifying user name:	WinNT
#	Modification time:	15. 06. 2019 19:07

#	Program:	/corina/corina34_cracker 3.40 0067  02.08.2006

@<TRIPOS>MOLECULE
ASD01190177
  49   53    0    0    0
SMALL
NO_CHARGES


@<TRIPOS>ATOM
   1 C1            -0.0187     1.5258     0.0104 C.3     
   2 C2             0.5326     0.1153    -0.2078 C.3     
   3 N3             3.0999     3.1881     1.0441 N.pl3   
   4 C4             2.3800     2.0953     0.6444 C.2     
   5 C5             1.0964     2.4381     0.4523 C.2     
   6 C6             0.9853     3.8673     0.7537 C.ar    
   7 C7            -0.0688     4.7830     0.7400 C.ar    
   8 C8             0.1596     6.0854     1.0840 C.ar    
   9 C9             1.4318     6.5061     1.4472 C.ar    
  10 C10            2.4860     5.6197     1.4670 C.ar    
  11 C11            2.2761     4.2887     1.1209 C.ar    
  12 C12            4.5324     3.1860     1.3507 C.3     
  13 N13           -2.4577     3.4266    -4.6833 N.pl3   
  14 N14           -3.7849     3.3915    -4.2383 N.2     
  15 C15           -3.8267     2.9581    -3.0109 C.2     
  16 C16           -2.5060     2.6825    -2.5820 C.ar    
  17 C17           -1.9577     2.2042    -1.3848 C.ar    
  18 C18           -0.6076     2.0398    -1.2779 C.ar    
  19 C19            0.2302     2.3420    -2.3447 C.ar    
  20 C20           -0.2798     2.8098    -3.5226 C.ar    
  21 C21           -1.6535     2.9875    -3.6607 C.ar    
  22 C22           -0.7604     4.5919    -7.5358 C.2     
  23 N23           -0.8085     4.3179    -6.2606 N.2     
  24 C24           -2.0251     3.8343    -5.9559 C.2     
  25 C25           -2.7585     3.8091    -7.0920 C.2     
  26 N26           -1.9528     4.2904    -8.0922 N.pl3   
  27 C27           -2.3183     4.4481    -9.5021 C.3     
  28 F28            1.0793    -0.3619     0.9882 F       
  29 F29           -0.5026    -0.7317    -0.6180 F       
  30 F30            1.5250     0.1498    -1.1932 F       
  31 O31           -1.0324     1.4905     1.0170 O.3     
  32 H32            2.7846     1.1038     0.5039 H       
  33 H33           -1.0611     4.4630     0.4582 H       
  34 H34           -0.6559     6.7933     1.0729 H       
  35 H35            1.5967     7.5389     1.7165 H       
  36 H36            3.4720     5.9568     1.7507 H       
  37 H37            5.0981     3.4063     0.4454 H       
  38 H38            4.7437     3.9442     2.1047 H       
  39 H39            4.8214     2.2059     1.7302 H       
  40 H40           -4.7206     2.8302    -2.4185 H       
  41 H41           -2.6008     1.9667    -0.5503 H       
  42 H42            1.2966     2.2058    -2.2413 H       
  43 H43            0.3813     3.0415    -4.3446 H       
  44 H44            0.0925     4.9978    -8.0594 H       
  45 H45           -3.7806     3.4747    -7.1922 H       
  46 H46           -2.0785     3.5334   -10.0441 H       
  47 H47           -3.3872     4.6472    -9.5803 H       
  48 H48           -1.7613     5.2812    -9.9309 H       
  49 H49           -1.4275     2.3523     1.2076 H       
@<TRIPOS>BOND
   1    1    2 1
   2    1    5 1
   3    1   18 1
   4    1   31 1
   5    2   28 1
   6    2   29 1
   7    2   30 1
   8    3    4 1
   9    3   11 1
  10    3   12 1
  11    4    5 2
  12    4   32 1
  13    5    6 1
  14    6    7 ar
  15    6   11 ar
  16    7    8 ar
  17    7   33 1
  18    8    9 ar
  19    8   34 1
  20    9   10 ar
  21    9   35 1
  22   10   11 ar
  23   10   36 1
  24   12   37 1
  25   12   38 1
  26   12   39 1
  27   13   14 1
  28   13   21 1
  29   13   24 1
  30   14   15 2
  31   15   16 1
  32   15   40 1
  33   16   17 ar
  34   16   21 ar
  35   17   18 ar
  36   17   41 1
  37   18   19 ar
  38   19   20 ar
  39   19   42 1
  40   20   21 ar
  41   20   43 1
  42   22   23 2
  43   22   26 1
  44   22   44 1
  45   23   24 1
  46   24   25 2
  47   25   26 1
  48   25   45 1
  49   26   27 1
  50   27   46 1
  51   27   47 1
  52   27   48 1
  53   31   49 1

#	End of record

