#	Name: ASD01420075
#	Creating user name:	WinNT
#	Creation time:	15. 06. 2019 19:20

#	Modifying user name:	WinNT
#	Modification time:	15. 06. 2019 19:20

#	Program:	/corina/corina34_cracker 3.40 0067  02.08.2006

@<TRIPOS>MOLECULE
ASD01420075
  36   38    0    0    0
SMALL
NO_CHARGES


@<TRIPOS>ATOM
   1 O1             0.0012     1.3235    -0.2485 O.3     
   2 C2            -0.0023     0.0022     0.0244 C.ar    
   3 C3             1.3283    -0.3812     0.2732 C.ar    
   4 C4             2.1265     0.8385     0.1226 C.2     
   5 C5             1.2514     1.8230    -0.1925 C.2     
   6 C6            -1.0136    -0.9495     0.0924 C.ar    
   7 C7            -0.7142    -2.2562     0.4008 C.ar    
   8 C8             0.6078    -2.6444     0.6501 C.ar    
   9 C9             1.6312    -1.7053     0.5853 C.ar    
  10 C10            1.6135     3.2345    -0.4379 C.ar    
  11 C11            2.6856     3.5465    -1.2762 C.ar    
  12 C12            3.0199     4.8644    -1.5029 C.ar    
  13 C13            2.2923     5.8812    -0.8984 C.ar    
  14 C14            1.2253     5.5750    -0.0640 C.ar    
  15 C15            0.8809     4.2598     0.1633 C.ar    
  16 O16            2.6255     7.1789    -1.1237 O.3     
  17 C17            0.9154    -4.0519     0.9808 C.2     
  18 C18            3.6188     0.9708     0.2859 C.3     
  19 C19           -0.0605    -4.9470     1.0416 C.2     
  20 C20            0.2532    -6.3819     1.3788 C.3     
  21 H21           -2.0372    -0.6620    -0.0972 H       
  22 H22           -1.5058    -2.9891     0.4516 H       
  23 H23            2.6527    -1.9996     0.7761 H       
  24 H24            3.2524     2.7564    -1.7461 H       
  25 H25            3.8491     5.1066    -2.1511 H       
  26 H26            0.6619     6.3686     0.4042 H       
  27 H27            0.0482     4.0227     0.8088 H       
  28 H28            2.1746     7.5749    -1.8820 H       
  29 H29            1.9352    -4.3509     1.1730 H       
  30 H30            4.0996     0.8886    -0.6889 H       
  31 H31            3.8516     1.9408     0.7252 H       
  32 H32            3.9844     0.1788     0.9394 H       
  33 H33           -1.0803    -4.6479     0.8494 H       
  34 H34           -0.6683    -6.9642     1.3817 H       
  35 H35            0.9377    -6.7888     0.6345 H       
  36 H36            0.7169    -6.4306     2.3640 H       
@<TRIPOS>BOND
   1    1    2 1
   2    1    5 1
   3    2    3 ar
   4    2    6 ar
   5    3    4 1
   6    3    9 ar
   7    4    5 2
   8    4   18 1
   9    5   10 1
  10    6    7 ar
  11    6   21 1
  12    7    8 ar
  13    7   22 1
  14    8    9 ar
  15    8   17 1
  16    9   23 1
  17   10   11 ar
  18   10   15 ar
  19   11   12 ar
  20   11   24 1
  21   12   13 ar
  22   12   25 1
  23   13   14 ar
  24   13   16 1
  25   14   15 ar
  26   14   26 1
  27   15   27 1
  28   16   28 1
  29   17   19 2
  30   17   29 1
  31   18   30 1
  32   18   31 1
  33   18   32 1
  34   19   20 1
  35   19   33 1
  36   20   34 1
  37   20   35 1
  38   20   36 1

#	End of record

