#	Name: ASD08070356
#	Creating user name:	WinNT
#	Creation time:	15. 06. 2019 21:14

#	Modifying user name:	WinNT
#	Modification time:	15. 06. 2019 21:14

#	Program:	/corina/corina34_cracker 3.40 0067  02.08.2006

@<TRIPOS>MOLECULE
ASD08070356
  35   37    0    0    0
SMALL
NO_CHARGES


@<TRIPOS>ATOM
   1 O1            -0.0143     1.2024     0.0087 O.3     
   2 N2             0.0021    -0.0041     0.0020 N.2     
   3 C3             1.2115    -0.4810    -0.0121 C.2     
   4 C4             2.0937     0.6961    -0.0142 C.2     
   5 C5             1.2058     1.7440    -0.0001 C.2     
   6 C6             3.5670     0.7401    -0.0276 C.2     
   7 O7             4.2062    -0.2944    -0.0389 O.2     
   8 N8             4.2057     1.9269    -0.0274 N.am    
   9 C9             5.6700     1.9707    -0.0407 C.3     
  10 C10            6.1287     3.2952    -0.6476 C.3     
  11 C11            7.6452     3.4154    -0.4552 C.3     
  12 C12            7.9265     3.6292     1.0307 C.3     
  13 C13            7.2226     2.5861     1.8586 C.ar    
  14 C14            7.6528     2.3995     3.1662 C.ar    
  15 C15            7.0465     1.4626     3.9767 C.ar    
  16 C16            6.0010     0.7030     3.4850 C.ar    
  17 C17            5.5732     0.8859     2.1865 C.ar    
  18 C18            6.1841     1.8273     1.3679 C.ar    
  19 C19            1.6221    -1.9310    -0.0234 C.3     
  20 H20            1.4468     2.7967     0.0033 H       
  21 H21            3.6959     2.7521    -0.0184 H       
  22 H22            6.0487     1.1475    -0.6465 H       
  23 H23            5.8910     3.3136    -1.7112 H       
  24 H24            5.6281     4.1225    -0.1445 H       
  25 H25            8.1318     2.5004    -0.7931 H       
  26 H26            8.0215     4.2643    -1.0260 H       
  27 H27            9.0003     3.5630     1.2064 H       
  28 H28            7.5752     4.6184     1.3243 H       
  29 H29            8.4691     2.9927     3.5512 H       
  30 H30            7.3873     1.3225     4.9919 H       
  31 H31            5.5214    -0.0313     4.1152 H       
  32 H32            4.7569     0.2918     1.8029 H       
  33 H33            1.7115    -2.2753    -1.0537 H       
  34 H34            2.5821    -2.0407     0.4810 H       
  35 H35            0.8695    -2.5257     0.4944 H       
@<TRIPOS>BOND
   1    1    2 1
   2    1    5 1
   3    2    3 2
   4    3    4 1
   5    3   19 1
   6    4    5 2
   7    4    6 1
   8    5   20 1
   9    6    7 2
  10    6    8 am
  11    8    9 1
  12    8   21 1
  13    9   10 1
  14    9   18 1
  15    9   22 1
  16   10   11 1
  17   10   23 1
  18   10   24 1
  19   11   12 1
  20   11   25 1
  21   11   26 1
  22   12   13 1
  23   12   27 1
  24   12   28 1
  25   13   14 ar
  26   13   18 ar
  27   14   15 ar
  28   14   29 1
  29   15   16 ar
  30   15   30 1
  31   16   17 ar
  32   16   31 1
  33   17   18 ar
  34   17   32 1
  35   19   33 1
  36   19   34 1
  37   19   35 1

#	End of record

