#	Name: ASD08070239
#	Creating user name:	WinNT
#	Creation time:	15. 06. 2019 21:14

#	Modifying user name:	WinNT
#	Modification time:	15. 06. 2019 21:14

#	Program:	/corina/corina34_cracker 3.40 0067  02.08.2006

@<TRIPOS>MOLECULE
ASD08070239
  36   37    0    0    0
SMALL
NO_CHARGES


@<TRIPOS>ATOM
   1 C1            -0.0445     1.3840    -0.0136 C.ar    
   2 C2            -0.0041    -0.0136     0.0008 C.ar    
   3 C3             1.2909    -0.7183    -0.0147 C.2     
   4 N4             1.8620    -1.0529    -1.1887 N.am    
   5 O5             1.8437    -0.9975     1.0319 O.2     
   6 C6            -1.2021    -0.7408     0.0304 C.ar    
   7 C7            -2.4149    -0.0674     0.0452 C.ar    
   8 C8            -2.4407     1.3145     0.0307 C.ar    
   9 C9            -1.2599     2.0371     0.0067 C.ar    
  10 C10            3.1285    -1.6459    -1.2063 C.ar    
  11 C11            3.9440    -1.5128    -2.3229 C.ar    
  12 C12            5.1941    -2.0991    -2.3369 C.ar    
  13 C13            5.6346    -2.8183    -1.2407 C.ar    
  14 C14            4.8254    -2.9527    -0.1277 C.ar    
  15 C15            3.5759    -2.3642    -0.1052 C.ar    
  16 C16            6.9993    -3.4573    -1.2597 C.3     
  17 C17            3.4646    -0.7298    -3.5180 C.3     
  18 Cl18           1.4321     2.2962    -0.0497 Cl      
  19 Cl19          -3.9024    -0.9616     0.0813 Cl      
  20 O20           -1.1758    -2.0973     0.0441 O.3     
  21 C21           -1.1397    -2.7326     1.3237 C.3     
  22 H22            1.3947    -0.8825    -2.0214 H       
  23 H23           -3.3875     1.8339     0.0423 H       
  24 H24           -1.2904     3.1166    -0.0041 H       
  25 H25            5.8284    -1.9963    -3.2049 H       
  26 H26            5.1722    -3.5152     0.7265 H       
  27 H27            2.9443    -2.4696     0.7645 H       
  28 H28            7.7345    -2.7555    -0.8660 H       
  29 H29            6.9883    -4.3560    -0.6430 H       
  30 H30            7.2621    -3.7225    -2.2838 H       
  31 H31            3.7547     0.3151    -3.4079 H       
  32 H32            3.9134    -1.1379    -4.4236 H       
  33 H33            2.3791    -0.8002    -3.5869 H       
  34 H34           -0.2455    -2.4168     1.8611 H       
  35 H35           -2.0249    -2.4511     1.8941 H       
  36 H36           -1.1214    -3.8144     1.1918 H       
@<TRIPOS>BOND
   1    1    2 ar
   2    1   18 1
   3    1    9 ar
   4    2    3 1
   5    2    6 ar
   6    3    4 am
   7    3    5 2
   8    4   10 1
   9    4   22 1
  10    6    7 ar
  11    6   20 1
  12    7    8 ar
  13    7   19 1
  14    8    9 ar
  15    8   23 1
  16    9   24 1
  17   10   11 ar
  18   10   15 ar
  19   11   12 ar
  20   11   17 1
  21   12   13 ar
  22   12   25 1
  23   13   14 ar
  24   13   16 1
  25   14   15 ar
  26   14   26 1
  27   15   27 1
  28   16   28 1
  29   16   29 1
  30   16   30 1
  31   17   31 1
  32   17   32 1
  33   17   33 1
  34   20   21 1
  35   21   34 1
  36   21   35 1
  37   21   36 1

#	End of record

