#	Name: ASD03092298
#	Creating user name:	WinNT
#	Creation time:	15. 06. 2019 20:32

#	Modifying user name:	WinNT
#	Modification time:	15. 06. 2019 20:32

#	Program:	/corina/corina34_cracker 3.40 0067  02.08.2006

@<TRIPOS>MOLECULE
ASD03092298
  58   61    0    0    0
SMALL
NO_CHARGES


@<TRIPOS>ATOM
   1 O1             0.7343     1.4135     0.2835 O.3     
   2 N2             0.9086     0.2186     0.3401 N.2     
   3 C3             2.1723    -0.0908     0.3190 C.2     
   4 C4             2.8843     1.1264     0.2352 C.2     
   5 C5             1.9026     2.0792     0.2148 C.2     
   6 C6             2.0869     3.5405     0.1332 C.2     
   7 O7             3.2071     4.0097     0.0757 O.2     
   8 N8             1.0135     4.3555     0.1224 N.am    
   9 C9             2.7613    -1.4769     0.3740 C.3     
  10 C10            1.1966     5.8068     0.0413 C.3     
  11 S11           -2.3153     7.6004    -0.6274 S.3     
  12 C12           -1.9549     7.3528     1.0251 C.2     
  13 N13           -0.8019     6.7677     1.1522 N.2     
  14 C14           -0.1497     6.4839     0.0457 C.2     
  15 C15           -0.7883     6.8505    -1.0852 C.2     
  16 C16            0.1535     7.4818    -4.6655 C.ar    
  17 C17           -0.3182     7.7068    -3.3904 C.ar    
  18 C18           -0.2947     6.6569    -2.4626 C.ar    
  19 C19            0.2110     5.4182    -2.8791 C.ar    
  20 C20            0.6617     5.2824    -4.1743 C.ar    
  21 N21            0.6218     6.2983    -5.0164 N.ar    
  22 C22            1.2081     3.9558    -4.6356 C.3     
  23 C23            0.1284     8.6002    -5.6753 C.3     
  24 N24           -2.7734     7.7229     2.0767 N.3     
  25 C25           -4.0038     8.3614     1.5871 C.3     
  26 C26           -4.8509     8.8078     2.7817 C.3     
  27 O27           -5.1220     7.6783     3.6160 O.3     
  28 C28           -3.9459     7.0326     4.1110 C.3     
  29 C29           -3.0897     6.5682     2.9298 C.3     
  30 C30           -4.3454     5.8233     4.9590 C.3     
  31 C31           -6.1691     9.4007     2.2802 C.3     
  32 H32            3.9539     1.2711     0.1966 H       
  33 H33            0.1198     3.9812     0.1682 H       
  34 H34            2.8735    -1.8645    -0.6385 H       
  35 H35            3.7371    -1.4381     0.8583 H       
  36 H36            2.0995    -2.1306     0.9421 H       
  37 H37            1.7778     6.1481     0.8979 H       
  38 H38            1.7254     6.0555    -0.8789 H       
  39 H39           -0.6995     8.6777    -3.1103 H       
  40 H40            0.2474     4.5829    -2.1955 H       
  41 H41            0.3983     3.3517    -5.0447 H       
  42 H42            1.9623     4.1213    -5.4050 H       
  43 H43            1.6590     3.4350    -3.7909 H       
  44 H44            1.0627     9.1590    -5.6219 H       
  45 H45            0.0107     8.1838    -6.6757 H       
  46 H46           -0.7065     9.2666    -5.4586 H       
  47 H47           -3.7467     9.2287     0.9789 H       
  48 H48           -4.5691     7.6492     0.9860 H       
  49 H49           -4.3067     9.5599     3.3530 H       
  50 H50           -3.3754     7.7331     4.7209 H       
  51 H51           -3.6403     5.8274     2.3502 H       
  52 H52           -2.1652     6.1265     3.3019 H       
  53 H53           -4.9141     5.1227     4.3475 H       
  54 H54           -3.4486     5.3316     5.3359 H       
  55 H55           -4.9582     6.1541     5.7975 H       
  56 H56           -6.7132     8.6471     1.7108 H       
  57 H57           -6.7717     9.7183     3.1312 H       
  58 H58           -5.9616    10.2592     1.6414 H       
@<TRIPOS>BOND
   1    1    2 1
   2    1    5 1
   3    2    3 2
   4    3    4 1
   5    3    9 1
   6    4    5 2
   7    4   32 1
   8    5    6 1
   9    6    7 2
  10    6    8 am
  11    8   10 1
  12    8   33 1
  13    9   34 1
  14    9   35 1
  15    9   36 1
  16   10   14 1
  17   10   37 1
  18   10   38 1
  19   11   12 1
  20   11   15 1
  21   12   13 2
  22   12   24 1
  23   13   14 1
  24   14   15 2
  25   15   18 1
  26   16   17 ar
  27   16   21 ar
  28   16   23 1
  29   17   18 ar
  30   17   39 1
  31   18   19 ar
  32   19   20 ar
  33   19   40 1
  34   20   21 ar
  35   20   22 1
  36   22   41 1
  37   22   42 1
  38   22   43 1
  39   23   44 1
  40   23   45 1
  41   23   46 1
  42   24   25 1
  43   24   29 1
  44   25   26 1
  45   25   47 1
  46   25   48 1
  47   26   27 1
  48   26   31 1
  49   26   49 1
  50   27   28 1
  51   28   29 1
  52   28   30 1
  53   28   50 1
  54   29   51 1
  55   29   52 1
  56   30   53 1
  57   30   54 1
  58   30   55 1
  59   31   56 1
  60   31   57 1
  61   31   58 1

#	End of record

