#	Name: ASD01001050
#	Creating user name:	WinNT
#	Creation time:	15. 06. 2019 18:55

#	Modifying user name:	WinNT
#	Modification time:	15. 06. 2019 18:55

#	Program:	/corina/corina34_cracker 3.40 0067  02.08.2006

@<TRIPOS>MOLECULE
ASD01001050
  52   54    0    0    0
SMALL
NO_CHARGES


@<TRIPOS>ATOM
   1 C1             0.0783     1.8115     1.1494 C.ar    
   2 C2            -0.1573     0.4639     0.8589 C.ar    
   3 C3             1.2987     2.3757     0.8437 C.ar    
   4 C4             0.8486    -0.3010     0.2598 C.ar    
   5 C5             2.2890     1.6122     0.2504 C.ar    
   6 C6             2.0637     0.2778    -0.0398 C.ar    
   7 C7             3.6196     2.2371    -0.0813 C.3     
   8 C8             4.6987     1.1874    -0.0122 C.ar    
   9 C9             3.5701     2.8159    -1.4718 C.ar    
  10 S10            3.9820     3.5561     1.1102 S.3     
  11 C11            5.5206     0.9683    -1.1019 C.ar    
  12 C12            4.8704     0.4476     1.1428 C.ar    
  13 C13            3.2909     1.9986    -2.5511 C.ar    
  14 C14            3.7983     4.1652    -1.6674 C.ar    
  15 C15            5.6706     4.0513     0.6697 C.3     
  16 C16            6.5141     0.0094    -1.0365 C.ar    
  17 C17            5.8602    -0.5153     1.2062 C.ar    
  18 C18            3.2400     2.5305    -3.8260 C.ar    
  19 C19            3.7529     4.6961    -2.9429 C.ar    
  20 C20            6.1522     5.1361     1.6351 C.3     
  21 C21            6.6860    -0.7301     0.1186 C.ar    
  22 C22            3.4677     3.8799    -4.0215 C.ar    
  23 N23            5.2615     6.3009     1.5465 N.3     
  24 C24            7.5550     5.5475     1.2692 C.2     
  25 O25            7.7418     6.5570     0.6322 O.2     
  26 O26            8.5970     4.7923     1.6510 O.3     
  27 C27           -1.4569    -0.1462     1.1823 C.2     
  28 O28           -2.3268     0.5197     1.7021 O.2     
  29 C29           -1.7067    -1.5987     0.8676 C.3     
  30 H30           -0.6952     2.4098     1.6079 H       
  31 H31            1.4822     3.4162     1.0674 H       
  32 H32            0.6743    -1.3424     0.0327 H       
  33 H33            2.8415    -0.3115    -0.5025 H       
  34 H34            5.3862     1.5461    -2.0044 H       
  35 H35            4.2314     0.6221     1.9959 H       
  36 H36            3.1130     0.9443    -2.3984 H       
  37 H37            4.0116     4.8046    -0.8236 H       
  38 H38            6.3315     3.1870     0.7355 H       
  39 H39            5.6813     4.4402    -0.3485 H       
  40 H40            7.1557    -0.1623    -1.8881 H       
  41 H41            5.9945    -1.0931     2.1087 H       
  42 H42            3.0226     1.8918    -4.6693 H       
  43 H43            3.9308     5.7503    -3.0956 H       
  44 H44            6.1415     4.7472     2.6533 H       
  45 H45            7.4620    -1.4796     0.1695 H       
  46 H46            3.4322     4.2946    -5.0180 H       
  47 H47            5.2540     6.6801     0.6115 H       
  48 H48            4.3280     6.0662     1.8490 H       
  49 H49            9.4778     5.0967     1.3928 H       
  50 H50           -0.8173    -2.0287     0.4069 H       
  51 H51           -1.9350    -2.1359     1.7881 H       
  52 H52           -2.5483    -1.6819     0.1800 H       
@<TRIPOS>BOND
   1    1    2 ar
   2    1    3 ar
   3    1   30 1
   4    2    4 ar
   5    2   27 1
   6    3    5 ar
   7    3   31 1
   8    4    6 ar
   9    4   32 1
  10    5    6 ar
  11    5    7 1
  12    6   33 1
  13    7   10 1
  14    7    8 1
  15    7    9 1
  16    8   12 ar
  17    8   11 ar
  18    9   14 ar
  19    9   13 ar
  20   10   15 1
  21   11   16 ar
  22   11   34 1
  23   12   17 ar
  24   12   35 1
  25   13   18 ar
  26   13   36 1
  27   14   19 ar
  28   14   37 1
  29   15   20 1
  30   15   38 1
  31   15   39 1
  32   16   21 ar
  33   16   40 1
  34   17   21 ar
  35   17   41 1
  36   18   22 ar
  37   18   42 1
  38   19   22 ar
  39   19   43 1
  40   20   23 1
  41   20   24 1
  42   20   44 1
  43   21   45 1
  44   22   46 1
  45   23   47 1
  46   23   48 1
  47   24   25 2
  48   24   26 1
  49   26   49 1
  50   27   28 2
  51   27   29 1
  52   29   50 1
  53   29   51 1
  54   29   52 1

#	End of record

