#	Name: ASD02320003
#	Creating user name:	WinNT
#	Creation time:	15. 06. 2019 20:20

#	Modifying user name:	WinNT
#	Modification time:	15. 06. 2019 20:20

#	Program:	/corina/corina34_cracker 3.40 0067  02.08.2006

@<TRIPOS>MOLECULE
ASD02320003
  26   26    0    0    0
SMALL
NO_CHARGES


@<TRIPOS>ATOM
   1 C1            -0.0187     1.5258     0.0104 C.3     
   2 C2             0.0021    -0.0041     0.0020 C.3     
   3 C3             0.7421    -0.5109     1.2415 C.3     
   4 C4             2.1775     0.0187     1.2307 C.3     
   5 C5             2.1567     1.5485     1.2391 C.3     
   6 C6             1.4167     2.0553    -0.0004 C.3     
   7 C7            -0.7475     2.0250    -1.2105 C.2     
   8 O8            -1.2036     1.2379    -2.0057 O.2     
   9 O9            -0.8901     3.3440    -1.4144 O.3     
  10 C10            2.9174    -0.4882     2.4702 C.3     
  11 N11            4.3269    -0.0800     2.4001 N.3     
  12 H12           -0.5289     1.8773     0.9072 H       
  13 H13           -1.0205    -0.3814     0.0098 H       
  14 H14            0.5123    -0.3556    -0.8948 H       
  15 H15            0.2319    -0.1594     2.1383 H       
  16 H16            0.7568    -1.6008     1.2356 H       
  17 H17            2.6876    -0.3328     0.3339 H       
  18 H18            1.6465     1.9000     2.1359 H       
  19 H19            3.1793     1.9258     1.2314 H       
  20 H20            1.9269     1.7038    -0.8972 H       
  21 H21            1.4019     3.1452     0.0056 H       
  22 H22           -1.3651     3.6162    -2.2116 H       
  23 H23            2.4606    -0.0646     3.3646 H       
  24 H24            2.8557    -1.5756     2.5109 H       
  25 H25            4.4089     0.9203     2.2967 H       
  26 H26            4.8375    -0.4030     3.2082 H       
@<TRIPOS>BOND
   1    1    2 1
   2    1    6 1
   3    1    7 1
   4    1   12 1
   5    2    3 1
   6    2   13 1
   7    2   14 1
   8    3    4 1
   9    3   15 1
  10    3   16 1
  11    4    5 1
  12    4   10 1
  13    4   17 1
  14    5    6 1
  15    5   18 1
  16    5   19 1
  17    6   20 1
  18    6   21 1
  19    7    8 2
  20    7    9 1
  21    9   22 1
  22   10   11 1
  23   10   23 1
  24   10   24 1
  25   11   25 1
  26   11   26 1

#	End of record

