#	Name: ASD01885258
#	Creating user name:	WinNT
#	Creation time:	15. 06. 2019 19:49

#	Modifying user name:	WinNT
#	Modification time:	15. 06. 2019 19:49

#	Program:	/corina/corina34_cracker 3.40 0067  02.08.2006

@<TRIPOS>MOLECULE
ASD01885258
  46   50    0    0    0
SMALL
NO_CHARGES


@<TRIPOS>ATOM
   1 C1            -0.0164     1.3564     0.0095 C.ar    
   2 C2             0.0021    -0.0041     0.0020 C.ar    
   3 C3             1.2053    -0.7064    -0.0128 C.ar    
   4 C4             2.3988    -0.0484    -0.0201 C.ar    
   5 C5             2.4185     1.3521    -0.0133 C.ar    
   6 C6             1.1965     2.0715     0.0018 C.ar    
   7 C7             3.6406     2.0709    -0.0210 C.ar    
   8 C8             3.5788     3.4577    -0.0140 C.ar    
   9 C9             2.3314     4.0920     0.0004 C.ar    
  10 N10            1.2050     3.4047     0.0084 N.ar    
  11 C11            4.9419     1.3646    -0.0357 C.ar    
  12 C12            5.9189     1.7166    -0.9675 C.ar    
  13 C13            7.1295     1.0560    -0.9768 C.ar    
  14 C14            7.3762     0.0437    -0.0629 C.ar    
  15 C15            6.4088    -0.3100     0.8645 C.ar    
  16 C16            5.1973     0.3488     0.8859 C.ar    
  17 C17            2.2741     5.5737     0.0078 C.2     
  18 O18            3.3020     6.2215     0.0015 O.2     
  19 N19            1.0818     6.2019     0.0216 N.am    
  20 C20           -1.2997    -0.7633     0.0104 C.3     
  21 N21           -1.7346    -1.0020    -1.3681 N.pl3   
  22 C22           -2.6017    -0.2342    -2.0833 C.2     
  23 N23           -2.7651    -0.7349    -3.2730 N.2     
  24 C24           -2.0133    -1.8572    -3.3991 C.ar    
  25 C25           -1.3364    -2.0417    -2.1804 C.ar    
  26 F26            8.5635    -0.6007    -0.0762 F       
  27 C27           -1.8083    -2.7752    -4.4338 C.ar    
  28 C28           -0.9480    -3.8323    -4.2067 C.ar    
  29 C29           -0.3209    -3.9513    -2.9763 C.ar    
  30 N30           -0.5173    -3.0686    -2.0188 N.ar    
  31 H31           -0.9577     1.8858     0.0168 H       
  32 H32            1.1920    -1.7863    -0.0181 H       
  33 H33            3.3248    -0.6041    -0.0309 H       
  34 H34            4.4866     4.0427    -0.0191 H       
  35 H35            5.7272     2.5048    -1.6805 H       
  36 H36            7.8863     1.3278    -1.6977 H       
  37 H37            6.6057    -1.0997     1.5744 H       
  38 H38            4.4459     0.0757     1.6120 H       
  39 H39            0.2612     5.6848     0.0267 H       
  40 H40            1.0443     7.1712     0.0265 H       
  41 H41           -1.1602    -1.7179     0.5178 H       
  42 H42           -2.0569    -0.1804     0.5346 H       
  43 H43           -3.0839     0.6599    -1.7166 H       
  44 H44           -2.3089    -2.6614    -5.3840 H       
  45 H45           -0.7657    -4.5611    -4.9826 H       
  46 H46            0.3508    -4.7790    -2.8029 H       
@<TRIPOS>BOND
   1    1    2 ar
   2    1    6 ar
   3    1   31 1
   4    2    3 ar
   5    2   20 1
   6    3    4 ar
   7    3   32 1
   8    4    5 ar
   9    4   33 1
  10    5    7 ar
  11    5    6 ar
  12    6   10 ar
  13    7    8 ar
  14    7   11 1
  15    8    9 ar
  16    8   34 1
  17    9   10 ar
  18    9   17 1
  19   11   12 ar
  20   11   16 ar
  21   12   13 ar
  22   12   35 1
  23   13   14 ar
  24   13   36 1
  25   14   15 ar
  26   14   26 1
  27   15   16 ar
  28   15   37 1
  29   16   38 1
  30   17   18 2
  31   17   19 am
  32   19   39 1
  33   19   40 1
  34   20   21 1
  35   20   41 1
  36   20   42 1
  37   21   22 1
  38   21   25 1
  39   22   23 2
  40   22   43 1
  41   23   24 1
  42   24   27 ar
  43   24   25 ar
  44   25   30 ar
  45   27   28 ar
  46   27   44 1
  47   28   29 ar
  48   28   45 1
  49   29   30 ar
  50   29   46 1

#	End of record

