#	Name: ASD01420092
#	Creating user name:	WinNT
#	Creation time:	15. 06. 2019 19:20

#	Modifying user name:	WinNT
#	Modification time:	15. 06. 2019 19:20

#	Program:	/corina/corina34_cracker 3.40 0067  02.08.2006

@<TRIPOS>MOLECULE
ASD01420092
  64   67    0    0    0
SMALL
NO_CHARGES


@<TRIPOS>ATOM
   1 C1            -0.0144     1.2120     0.0087 C.2     
   2 O2             0.1295     0.0132     0.1550 O.2     
   3 C3             1.0482     3.4383    -0.4762 C.3     
   4 N4             1.0607     2.0008    -0.1871 N.am    
   5 C5             2.4666     1.5859    -0.1513 C.3     
   6 C6             3.3115     2.8044    -0.4254 C.ar    
   7 C7             4.6838     2.9617    -0.5044 C.ar    
   8 C8             5.2254     4.2090    -0.7748 C.ar    
   9 C9             4.3880     5.2987    -0.9658 C.ar    
  10 C10            3.0193     5.1372    -0.8861 C.ar    
  11 C11            2.4800     3.8905    -0.6160 C.ar    
  12 O12            6.5733     4.3641    -0.8520 O.3     
  13 C13            7.0601     5.6777    -1.1339 C.3     
  14 C14            8.5892     5.6556    -1.1815 C.3     
  15 C15            9.1104     7.0621    -1.4833 C.3     
  16 N16           10.5786     7.0409    -1.5291 N.3     
  17 C17           11.1079     8.3109    -2.0469 C.3     
  18 C18           12.6381     8.2680    -2.0215 C.3     
  19 O19           13.0911     7.1432    -2.7799 O.3     
  20 C20           12.5950     5.8896    -2.3027 C.3     
  21 C21           11.0644     5.9085    -2.3309 C.3     
  22 C22           -1.3642     1.8009     0.0395 C.ar    
  23 C23           -2.2646     1.4465     1.0559 C.ar    
  24 C24           -3.5307     2.0049     1.0776 C.ar    
  25 C25           -3.9067     2.9113     0.0969 C.ar    
  26 C26           -3.0151     3.2637    -0.9115 C.ar    
  27 C27           -1.7517     2.7198    -0.9406 C.ar    
  28 C28           -3.4329     4.2491    -1.9723 C.3     
  29 C29           -2.5005     5.4617    -1.9376 C.3     
  30 C30           -3.3523     3.5830    -3.3473 C.3     
  31 O31           -5.1495     3.4561     0.1210 O.3     
  32 O32           -1.8953     0.5593     2.0135 O.3     
  33 H33            0.5099     3.6235    -1.4058 H       
  34 H34            0.5693     3.9756     0.3423 H       
  35 H35            2.7078     1.1827     0.8323 H       
  36 H36            2.6484     0.8306    -0.9158 H       
  37 H37            5.3338     2.1122    -0.3550 H       
  38 H38            4.8063     6.2719    -1.1762 H       
  39 H39            2.3674     5.9853    -1.0348 H       
  40 H40            6.6714     6.0105    -2.0963 H       
  41 H41            6.7308     6.3627    -0.3525 H       
  42 H42            8.9779     5.3228    -0.2191 H       
  43 H43            8.9185     4.9707    -1.9629 H       
  44 H44            8.7217     7.3949    -2.4457 H       
  45 H45            8.7811     7.7470    -0.7020 H       
  46 H46           10.7649     8.4577    -3.0710 H       
  47 H47           10.7565     9.1330    -1.4233 H       
  48 H48           13.0352     9.1846    -2.4575 H       
  49 H49           12.9826     8.1750    -0.9916 H       
  50 H50           12.9609     5.0862    -2.9420 H       
  51 H51           12.9382     5.7275    -1.2809 H       
  52 H52           10.6812     4.9768    -1.9146 H       
  53 H53           10.7206     6.0168    -3.3596 H       
  54 H54           -4.2265     1.7347     1.8582 H       
  55 H55           -1.0610     2.9993    -1.7224 H       
  56 H56           -4.4568     4.5726    -1.7848 H       
  57 H57           -1.4766     5.1382    -2.1252 H       
  58 H58           -2.8026     6.1744    -2.7049 H       
  59 H59           -2.5579     5.9362    -0.9581 H       
  60 H60           -4.0166     2.7191    -3.3721 H       
  61 H61           -3.6545     4.2957    -4.1146 H       
  62 H62           -2.3285     3.2595    -3.5349 H       
  63 H63           -5.2087     4.2783     0.6266 H       
  64 H64           -1.4866     0.9660     2.7898 H       
@<TRIPOS>BOND
   1    1    2 2
   2    1    4 am
   3    1   22 1
   4    3    4 1
   5    3   11 1
   6    3   33 1
   7    3   34 1
   8    4    5 1
   9    5    6 1
  10    5   35 1
  11    5   36 1
  12    6    7 ar
  13    6   11 ar
  14    7    8 ar
  15    7   37 1
  16    8    9 ar
  17    8   12 1
  18    9   10 ar
  19    9   38 1
  20   10   11 ar
  21   10   39 1
  22   12   13 1
  23   13   14 1
  24   13   40 1
  25   13   41 1
  26   14   15 1
  27   14   42 1
  28   14   43 1
  29   15   16 1
  30   15   44 1
  31   15   45 1
  32   16   17 1
  33   16   21 1
  34   17   18 1
  35   17   46 1
  36   17   47 1
  37   18   19 1
  38   18   48 1
  39   18   49 1
  40   19   20 1
  41   20   21 1
  42   20   50 1
  43   20   51 1
  44   21   52 1
  45   21   53 1
  46   22   23 ar
  47   22   27 ar
  48   23   24 ar
  49   23   32 1
  50   24   25 ar
  51   24   54 1
  52   25   26 ar
  53   25   31 1
  54   26   27 ar
  55   26   28 1
  56   27   55 1
  57   28   29 1
  58   28   30 1
  59   28   56 1
  60   29   57 1
  61   29   58 1
  62   29   59 1
  63   30   60 1
  64   30   61 1
  65   30   62 1
  66   31   63 1
  67   32   64 1

#	End of record

