#	Name: ASD04220033
#	Creating user name:	WinNT
#	Creation time:	15. 06. 2019 20:48

#	Modifying user name:	WinNT
#	Modification time:	15. 06. 2019 20:48

#	Program:	/corina/corina34_cracker 3.40 0067  02.08.2006

@<TRIPOS>MOLECULE
ASD04220033
  60   62    0    0    0
SMALL
NO_CHARGES


@<TRIPOS>ATOM
   1 C1             1.5821     0.6932     0.6933 C.3     
   2 N2             1.8782    -0.7397     0.5906 N.am    
   3 C3             2.3814    -1.2342    -0.7018 C.3     
   4 C4             3.7399    -0.5832    -0.9562 C.3     
   5 C5             3.6796     0.9005    -0.7035 C.ar    
   6 C6             4.6724     1.6899    -1.2728 C.ar    
   7 C7             4.6844     3.0576    -1.0748 C.ar    
   8 C8             3.6930     3.6500    -0.2976 C.ar    
   9 C9             2.7048     2.8627     0.2637 C.ar    
  10 C10            2.6954     1.4890     0.0589 C.ar    
  11 C11            2.5356    -2.7324    -0.6495 C.2     
  12 O12            1.7367    -3.4481    -1.2293 O.co2   
  13 O13            3.4592    -3.2288    -0.0274 O.co2   
  14 C14            1.6975    -1.5699     1.6368 C.2     
  15 C15            1.2558    -1.0191     2.9682 C.3     
  16 C16            1.1271    -2.1631     3.9760 C.3     
  17 C17            0.6787    -1.6039     5.3277 C.3     
  18 O18            1.8903    -2.7602     1.5068 O.2     
  19 C19            0.5519    -2.7306     6.3204 C.ar    
  20 C20            1.6670    -3.1668     7.0207 C.ar    
  21 C21            1.5502    -4.2034     7.9345 C.ar    
  22 C22            0.3232    -4.8013     8.1477 C.ar    
  23 C23           -0.7917    -4.3650     7.4480 C.ar    
  24 C24           -0.6757    -3.3252     6.5370 C.ar    
  25 O25            2.8748    -2.5782     6.8109 O.3     
  26 S26            3.1517    -1.3912     7.7223 S.o2    
  27 O27            4.2773    -0.6729     7.1452 O.co2   
  28 O28            1.9410    -0.5850     7.7406 O.co2   
  29 O29            3.4657    -1.9344     9.0347 O.co2   
  30 O30            3.6966     4.9942    -0.0915 O.3     
  31 S31            4.4602     5.4278     1.1516 S.o2    
  32 O32            4.1184     6.8217     1.3890 O.co2   
  33 O33            4.0194     4.5652     2.2368 O.co2   
  34 O34            5.8742     5.2551     0.8569 O.co2   
  35 O35            5.6601     3.8209    -1.6359 O.3     
  36 S36            5.3515     4.2746    -3.0556 S.o2    
  37 O37            6.6061     4.7330    -3.6315 O.co2   
  38 O38            4.8182     3.1183    -3.7589 O.co2   
  39 O39            4.3749     5.3476    -2.9501 O.co2   
  40 O40           -1.9994    -4.9538     7.6575 O.3     
  41 S41           -2.8222    -4.3035     8.7605 S.o2    
  42 O42           -3.8832    -5.2391     9.0994 O.co2   
  43 O43           -1.9192    -4.0741     9.8776 O.co2   
  44 O44           -3.3444    -3.0596     8.2163 O.co2   
  45 H45            0.6448     0.9075     0.1798 H       
  46 H46            1.4911     0.9703     1.7435 H       
  47 H47            1.6871    -0.9617    -1.4966 H       
  48 H48            4.4811    -1.0298    -0.2934 H       
  49 H49            4.0334    -0.7589    -1.9911 H       
  50 H50            5.4418     1.2299    -1.8752 H       
  51 H51            1.9340     3.3195     0.8667 H       
  52 H52            1.9927    -0.3004     3.3266 H       
  53 H53            0.2911    -0.5245     2.8548 H       
  54 H54            0.3901    -2.8818     3.6176 H       
  55 H55            2.0917    -2.6577     4.0894 H       
  56 H56            1.4156    -0.8851     5.6861 H       
  57 H57           -0.2860    -1.1093     5.2144 H       
  58 H58            2.4186    -4.5434     8.4793 H       
  59 H59            0.2323    -5.6088     8.8592 H       
  60 H60           -1.5448    -2.9829     5.9948 H       
@<TRIPOS>BOND
   1    1    2 1
   2    1   10 1
   3    1   45 1
   4    1   46 1
   5    2    3 1
   6    2   14 am
   7    3    4 1
   8    3   11 1
   9    3   47 1
  10    4    5 1
  11    4   48 1
  12    4   49 1
  13    5    6 ar
  14    5   10 ar
  15    6    7 ar
  16    6   50 1
  17    7    8 ar
  18    7   35 1
  19    8    9 ar
  20    8   30 1
  21    9   10 ar
  22    9   51 1
  23   11   12 ar
  24   11   13 ar
  25   14   15 1
  26   14   18 2
  27   15   16 1
  28   15   52 1
  29   15   53 1
  30   16   17 1
  31   16   54 1
  32   16   55 1
  33   17   19 1
  34   17   56 1
  35   17   57 1
  36   19   20 ar
  37   19   24 ar
  38   20   21 ar
  39   20   25 1
  40   21   22 ar
  41   21   58 1
  42   22   23 ar
  43   22   59 1
  44   23   24 ar
  45   23   40 1
  46   24   60 1
  47   25   26 1
  48   26   27 ar
  49   26   28 ar
  50   26   29 ar
  51   30   31 1
  52   31   32 ar
  53   31   33 ar
  54   31   34 ar
  55   35   36 1
  56   36   37 ar
  57   36   38 ar
  58   36   39 ar
  59   40   41 1
  60   41   42 ar
  61   41   43 ar
  62   41   44 ar

#	End of record

