#	Name: ASD01910341
#	Creating user name:	WinNT
#	Creation time:	15. 06. 2019 19:55

#	Modifying user name:	WinNT
#	Modification time:	15. 06. 2019 19:55

#	Program:	/corina/corina34_cracker 3.40 0067  02.08.2006

@<TRIPOS>MOLECULE
ASD01910341
  45   47    0    0    0
SMALL
NO_CHARGES


@<TRIPOS>ATOM
   1 C1             0.0456     1.4280    -0.1282 C.ar    
   2 C2             0.0541    -0.0039    -0.1122 C.1     
   3 C3             0.0611    -1.1778    -0.0991 C.1     
   4 C4             0.0697    -2.6097    -0.0831 C.ar    
   5 C5            -1.0068    -3.3100     0.4732 C.ar    
   6 C6            -0.9982    -4.6755     0.4877 C.ar    
   7 C7             0.0859    -5.3739    -0.0526 C.ar    
   8 C8             1.1617    -4.6749    -0.6085 C.ar    
   9 C9             1.1518    -3.3095    -0.6289 C.ar    
  10 C10            0.0949    -6.8499    -0.0357 C.2     
  11 O11           -0.8644    -7.4685    -0.4543 O.2     
  12 N12            1.1666    -7.5118     0.4439 N.am    
  13 C13            1.1578    -8.9776     0.5443 C.3     
  14 C14            1.5175    -9.3757     1.9791 C.3     
  15 C15            2.8487    -8.7272     2.3657 C.3     
  16 C16            2.7122    -7.2040     2.3068 C.3     
  17 C17            2.3681    -6.7817     0.8704 C.3     
  18 C18            1.1187     2.1307    -0.6828 C.ar    
  19 C19            1.1036     3.5097    -0.6947 C.ar    
  20 C20            0.0299     4.1993    -0.1590 C.ar    
  21 C21           -1.0370     3.5129     0.3927 C.ar    
  22 C22           -1.0405     2.1314     0.4065 C.ar    
  23 C23            3.2284    -9.1504     3.7861 C.3     
  24 O24            4.5249    -8.6405     4.1045 O.3     
  25 F25           -2.0829     1.4616     0.9450 F       
  26 H26           -1.8439    -2.7706     0.8912 H       
  27 H27           -1.8288    -5.2161     0.9169 H       
  28 H28            1.9989    -5.2150    -1.0253 H       
  29 H29            1.9826    -2.7696    -1.0586 H       
  30 H30            0.1651    -9.3547     0.2984 H       
  31 H31            1.8909    -9.3955    -0.1456 H       
  32 H32            0.7360    -9.0346     2.6581 H       
  33 H33            1.6086   -10.4599     2.0439 H       
  34 H34            3.6247    -9.0493     1.6713 H       
  35 H35            1.9194    -6.8834     2.9827 H       
  36 H36            3.6537    -6.7426     2.6048 H       
  37 H37            3.2014    -7.0209     0.2097 H       
  38 H38            2.1723    -5.7098     0.8417 H       
  39 H39            1.9581     1.5951    -1.1009 H       
  40 H40            1.9326     4.0534    -1.1232 H       
  41 H41            0.0250     5.2792    -0.1714 H       
  42 H42           -1.8711     4.0581     0.8092 H       
  43 H43            2.4984    -8.7527     4.4911 H       
  44 H44            3.2401   -10.2384     3.8501 H       
  45 H45            4.8309    -8.8708     4.9924 H       
@<TRIPOS>BOND
   1    1    2 1
   2    1   18 ar
   3    1   22 ar
   4    2    3 3
   5    3    4 1
   6    4    5 ar
   7    4    9 ar
   8    5    6 ar
   9    5   26 1
  10    6    7 ar
  11    6   27 1
  12    7    8 ar
  13    7   10 1
  14    8    9 ar
  15    8   28 1
  16    9   29 1
  17   10   11 2
  18   10   12 am
  19   12   13 1
  20   12   17 1
  21   13   14 1
  22   13   30 1
  23   13   31 1
  24   14   15 1
  25   14   32 1
  26   14   33 1
  27   15   16 1
  28   15   23 1
  29   15   34 1
  30   16   17 1
  31   16   35 1
  32   16   36 1
  33   17   37 1
  34   17   38 1
  35   18   19 ar
  36   18   39 1
  37   19   20 ar
  38   19   40 1
  39   20   21 ar
  40   20   41 1
  41   21   22 ar
  42   21   42 1
  43   22   25 1
  44   23   24 1
  45   23   43 1
  46   23   44 1
  47   24   45 1

#	End of record

