#	Name: ASD01028096
#	Creating user name:	WinNT
#	Creation time:	15. 06. 2019 18:56

#	Modifying user name:	WinNT
#	Modification time:	15. 06. 2019 18:56

#	Program:	/corina/corina34_cracker 3.40 0067  02.08.2006

@<TRIPOS>MOLECULE
ASD01028096
  85   90    0    0    0
SMALL
NO_CHARGES


@<TRIPOS>ATOM
   1 N1             1.2988     0.2662    -1.5965 N.ar    
   2 N2             4.2548     0.5935     1.2397 N.pl3   
   3 C3             5.5483     0.9575     0.8397 C.ar    
   4 C4             6.5973     0.0603     0.9835 C.ar    
   5 C5             6.3446    -1.3049     1.5696 C.3     
   6 C6             5.7793     2.2166     0.2932 C.ar    
   7 C7             7.0625     2.5735    -0.1025 C.ar    
   8 C8             8.1099     1.6714     0.0491 C.ar    
   9 C9             7.8733     0.4167     0.5895 C.ar    
  10 O10            4.9375     3.2630     0.0439 O.3     
  11 C11            5.7909     4.4096    -0.1301 C.3     
  12 O12            7.0287     3.8448    -0.6013 O.3     
  13 O13            9.3670     2.0184    -0.3380 O.3     
  14 C14           10.3610     1.1077    -0.1683 C.ar    
  15 C15           11.2626     1.2367     0.8784 C.ar    
  16 N16           12.2282     0.3552     1.0470 N.ar    
  17 C17           12.3771    -0.6751     0.2378 C.ar    
  18 C18           11.5183    -0.8707    -0.8279 C.ar    
  19 C19           10.4859     0.0287    -1.0385 C.ar    
  20 C20           13.4989    -1.6524     0.4774 C.3     
  21 C21            8.0039    -4.0663     0.7681 C.3     
  22 C22            7.5939    -2.8273    -0.0304 C.3     
  23 N23            6.3318    -2.3023     0.4966 N.am    
  24 C24            9.3219    -4.6147     0.2177 C.3     
  25 C25            9.7320    -5.8536     1.0163 C.3     
  26 C26           11.0500    -6.4020     0.4658 C.3     
  27 Cl27          11.5333    -7.8620     1.4069 Cl      
  28 C28            5.1590    -2.7368    -0.0056 C.2     
  29 O29            5.1462    -3.6807    -0.9656 O.3     
  30 O30            4.1133    -2.2766     0.4081 O.2     
  31 C31            3.8471    -4.1007    -1.4597 C.3     
  32 C32            4.0302    -5.1546    -2.5213 C.ar    
  33 C33            4.0708    -6.4907    -2.1691 C.ar    
  34 C34            4.2388    -7.4573    -3.1429 C.ar    
  35 C35            4.3657    -7.0879    -4.4689 C.ar    
  36 C36            4.3242    -5.7518    -4.8211 C.ar    
  37 C37            4.1518    -4.7854    -3.8478 C.ar    
  38 C38            3.2499     0.4767     0.3016 C.ar    
  39 N39            3.4583     0.8124    -0.9654 N.ar    
  40 C40            2.5033     0.7057    -1.8749 C.ar    
  41 C41            0.9807    -0.1012    -0.3455 C.ar    
  42 C42            1.9698    -0.0047     0.6645 C.ar    
  43 C43           -0.2955    -0.5747    -0.0162 C.ar    
  44 C44           -0.5697    -0.9390     1.2831 C.ar    
  45 C45            0.4140    -0.8402     2.2774 C.ar    
  46 C46            1.6652    -0.3816     1.9783 C.ar    
  47 O47           -1.8068    -1.3986     1.6053 O.3     
  48 C48           -2.7657    -1.4757     0.5486 C.3     
  49 O49            0.1190    -1.2052     3.5537 O.3     
  50 H50            4.0664     0.4238     2.1759 H       
  51 H51            7.1343    -1.5467     2.2810 H       
  52 H52            5.3818    -1.3084     2.0805 H       
  53 H53            8.6883    -0.2822     0.7062 H       
  54 H54            5.3727     5.0893    -0.8726 H       
  55 H55            5.9410     4.9232     0.8195 H       
  56 H56           11.1726     2.0682     1.5618 H       
  57 H57           11.6482    -1.7171    -1.4861 H       
  58 H58            9.7999    -0.0995    -1.8627 H       
  59 H59           13.1524    -2.4490     1.1358 H       
  60 H60           13.8178    -2.0797    -0.4733 H       
  61 H61           14.3380    -1.1354     0.9430 H       
  62 H62            8.1321    -3.7968     1.8165 H       
  63 H63            7.2289    -4.8277     0.6809 H       
  64 H64            8.3689    -2.0659     0.0568 H       
  65 H65            7.4657    -3.0968    -1.0788 H       
  66 H66            9.1937    -4.8842    -0.8307 H       
  67 H67           10.0970    -3.8532     0.3049 H       
  68 H68            9.8602    -5.5841     2.0646 H       
  69 H69            8.9570    -6.6151     0.9290 H       
  70 H70           10.9218    -6.6715    -0.5826 H       
  71 H71           11.8251    -5.6405     0.5530 H       
  72 H72            3.2610    -4.5113    -0.6374 H       
  73 H73            3.3255    -3.2433    -1.8850 H       
  74 H74            3.9716    -6.7793    -1.1331 H       
  75 H75            4.2712    -8.5012    -2.8676 H       
  76 H76            4.4976    -7.8431    -5.2296 H       
  77 H77            4.4237    -5.4632    -5.8571 H       
  78 H78            4.1194    -3.7416    -4.1231 H       
  79 H79            2.7253     0.9928    -2.8921 H       
  80 H80           -1.0592    -0.6532    -0.7758 H       
  81 H81            2.4159    -0.3097     2.7513 H       
  82 H82           -2.9227    -0.4827     0.1273 H       
  83 H83           -2.3974    -2.1459    -0.2282 H       
  84 H84           -3.7085    -1.8573     0.9406 H       
  85 H85            0.2943    -2.1363     3.7471 H       
@<TRIPOS>BOND
   1    1   41 ar
   2    1   40 ar
   3    2    3 1
   4    2   38 1
   5    2   50 1
   6    3    4 ar
   7    3    6 ar
   8    4    5 1
   9    4    9 ar
  10    5   23 1
  11    5   51 1
  12    5   52 1
  13    6    7 ar
  14    6   10 1
  15    7    8 ar
  16    7   12 1
  17    8    9 ar
  18    8   13 1
  19    9   53 1
  20   10   11 1
  21   11   12 1
  22   11   54 1
  23   11   55 1
  24   13   14 1
  25   14   15 ar
  26   14   19 ar
  27   15   16 ar
  28   15   56 1
  29   16   17 ar
  30   17   18 ar
  31   17   20 1
  32   18   19 ar
  33   18   57 1
  34   19   58 1
  35   20   59 1
  36   20   60 1
  37   20   61 1
  38   21   22 1
  39   21   24 1
  40   21   62 1
  41   21   63 1
  42   22   23 1
  43   22   64 1
  44   22   65 1
  45   23   28 am
  46   24   25 1
  47   24   66 1
  48   24   67 1
  49   25   26 1
  50   25   68 1
  51   25   69 1
  52   26   27 1
  53   26   70 1
  54   26   71 1
  55   28   29 1
  56   28   30 2
  57   29   31 1
  58   31   32 1
  59   31   72 1
  60   31   73 1
  61   32   33 ar
  62   32   37 ar
  63   33   34 ar
  64   33   74 1
  65   34   35 ar
  66   34   75 1
  67   35   36 ar
  68   35   76 1
  69   36   37 ar
  70   36   77 1
  71   37   78 1
  72   38   39 ar
  73   38   42 ar
  74   39   40 ar
  75   40   79 1
  76   41   42 ar
  77   41   43 ar
  78   42   46 ar
  79   43   44 ar
  80   43   80 1
  81   44   45 ar
  82   44   47 1
  83   45   46 ar
  84   45   49 1
  85   46   81 1
  86   47   48 1
  87   48   82 1
  88   48   83 1
  89   48   84 1
  90   49   85 1

#	End of record

