#	Name: ASD08070658
#	Creating user name:	WinNT
#	Creation time:	15. 06. 2019 21:15

#	Modifying user name:	WinNT
#	Modification time:	15. 06. 2019 21:15

#	Program:	/corina/corina34_cracker 3.40 0067  02.08.2006

@<TRIPOS>MOLECULE
ASD08070658
  39   42    0    0    0
SMALL
NO_CHARGES


@<TRIPOS>ATOM
   1 O1            -0.0174     1.4354     0.0099 O.3     
   2 C2             0.0021    -0.0041     0.0020 C.3     
   3 O3             1.2438    -0.3266    -0.6516 O.3     
   4 C4             2.0691     0.7335    -0.4082 C.ar    
   5 C5             1.2912     1.8185    -0.0005 C.ar    
   6 C6             1.8951     3.0290     0.3108 C.ar    
   7 C7             3.2633     3.1655     0.2185 C.ar    
   8 C8             4.0471     2.0840    -0.1895 C.ar    
   9 C9             3.4405     0.8645    -0.5026 C.ar    
  10 C10            5.5127     2.2285    -0.2894 C.2     
  11 O11            6.1937     1.2859    -0.6447 O.2     
  12 N12            6.0961     3.4052     0.0132 N.am    
  13 C13            7.5507     3.5485    -0.0859 C.3     
  14 C14            7.8977     5.0189    -0.3103 C.3     
  15 C15            9.4181     5.1798    -0.1945 C.3     
  16 C16            9.8138     4.9765     1.2667 C.3     
  17 C17            9.2289     3.6952     1.8006 C.ar    
  18 C18            9.7755     3.1703     2.9648 C.ar    
  19 C19            9.2815     2.0019     3.5064 C.ar    
  20 C20            8.2330     1.3474     2.8867 C.ar    
  21 C21            7.6897     1.8663     1.7300 C.ar    
  22 C22            8.1873     3.0416     1.1816 C.ar    
  23 H23           -0.0068    -0.3927     1.0203 H       
  24 H24           -0.8423    -0.3953    -0.5655 H       
  25 H25            1.2907     3.8666     0.6262 H       
  26 H26            3.7294     4.1091     0.4612 H       
  27 H27            4.0434     0.0258    -0.8180 H       
  28 H28            5.5528     4.1571     0.2967 H       
  29 H29            7.9130     2.9609    -0.9295 H       
  30 H30            7.5707     5.3259    -1.3038 H       
  31 H31            7.4051     5.6318     0.4446 H       
  32 H32            9.9146     4.4348    -0.8163 H       
  33 H33            9.7072     6.1799    -0.5174 H       
  34 H34           10.9004     4.9345     1.3423 H       
  35 H35            9.4451     5.8141     1.8588 H       
  36 H36           10.5943     3.6811     3.4496 H       
  37 H37            9.7125     1.5995     4.4113 H       
  38 H38            7.8411     0.4329     3.3068 H       
  39 H39            6.8711     1.3541     1.2462 H       
@<TRIPOS>BOND
   1    1    2 1
   2    1    5 1
   3    2    3 1
   4    2   23 1
   5    2   24 1
   6    3    4 1
   7    4    5 ar
   8    4    9 ar
   9    5    6 ar
  10    6    7 ar
  11    6   25 1
  12    7    8 ar
  13    7   26 1
  14    8    9 ar
  15    8   10 1
  16    9   27 1
  17   10   11 2
  18   10   12 am
  19   12   13 1
  20   12   28 1
  21   13   14 1
  22   13   22 1
  23   13   29 1
  24   14   15 1
  25   14   30 1
  26   14   31 1
  27   15   16 1
  28   15   32 1
  29   15   33 1
  30   16   17 1
  31   16   34 1
  32   16   35 1
  33   17   18 ar
  34   17   22 ar
  35   18   19 ar
  36   18   36 1
  37   19   20 ar
  38   19   37 1
  39   20   21 ar
  40   20   38 1
  41   21   22 ar
  42   21   39 1

#	End of record

