#	Name: ASD08150775
#	Creating user name:	WinNT
#	Creation time:	15. 06. 2019 21:16

#	Modifying user name:	WinNT
#	Modification time:	15. 06. 2019 21:16

#	Program:	/corina/corina34_cracker 3.40 0067  02.08.2006

@<TRIPOS>MOLECULE
ASD08150775
  59   62    0    0    0
SMALL
NO_CHARGES


@<TRIPOS>ATOM
   1 C1            -0.0173     1.3318     0.1136 C.2     
   2 N2            -0.0004     0.0025     0.2059 N.2     
   3 C3             1.1329    -0.6708     0.2926 C.2     
   4 C4             2.3483     0.0113     0.2886 C.2     
   5 C5             2.3335     1.4188     0.1910 C.2     
   6 N6             1.1444     2.0531     0.1046 N.am    
   7 C7            -1.2508     2.0011     0.0181 C.2     
   8 C8            -1.2710     3.3607    -0.0765 C.2     
   9 C9            -0.0631     4.0721    -0.0773 C.2     
  10 C10            1.1135     3.4117     0.0084 C.2     
  11 O11            3.3766     2.0516     0.1844 O.2     
  12 C12            1.1116    -2.1741     0.3960 C.3     
  13 C13            0.4492    -2.5854     1.7124 C.3     
  14 N14            0.3528    -2.7301    -0.7271 N.pl3   
  15 N15           -1.0979    -4.1219    -3.0528 N.2     
  16 C16           -1.4142    -5.0557    -3.9023 C.2     
  17 N17           -0.6528    -6.1645    -3.6805 N.pl3   
  18 C18            0.1812    -5.8867    -2.6271 C.ar    
  19 N19            1.1231    -6.5587    -1.9734 N.ar    
  20 C20            1.7708    -6.0027    -0.9711 C.ar    
  21 N21            1.5259    -4.7701    -0.5656 N.ar    
  22 C22            0.6019    -4.0212    -1.1587 C.ar    
  23 C23           -0.1162    -4.5707    -2.2342 C.ar    
  24 C24            2.4055     4.1874    -0.0006 C.3     
  25 C25            4.0264    -1.5930    -0.6322 C.ar    
  26 C26            3.6293    -0.7262     0.3854 C.ar    
  27 C27            4.4604    -0.5640     1.4990 C.ar    
  28 C28            5.6466    -1.2750     1.5416 C.ar    
  29 C29            5.9702    -2.1164     0.4907 C.ar    
  30 N30            5.1655    -2.2490    -0.5474 N.ar    
  31 C31            6.5766    -1.1347     2.7191 C.3     
  32 Cl32           7.4575    -3.0104     0.5387 Cl      
  33 H33           -2.1747     1.4419     0.0194 H       
  34 H34           -2.2115     3.8864    -0.1507 H       
  35 H35           -0.0723     5.1495    -0.1520 H       
  36 H36            2.1326    -2.5547     0.3686 H       
  37 H37            0.4338    -3.6727     1.7872 H       
  38 H38            1.0138    -2.1716     2.5480 H       
  39 H39           -0.5718    -2.2048     1.7399 H       
  40 H40           -0.3241    -2.1934    -1.1681 H       
  41 H41           -2.1691    -4.9657    -4.6694 H       
  42 H42           -0.6935    -6.9972    -4.1763 H       
  43 H43            2.5304    -6.5764    -0.4611 H       
  44 H44            3.0122     3.8728    -0.8497 H       
  45 H45            2.1892     5.2525    -0.0835 H       
  46 H46            2.9495     3.9980     0.9247 H       
  47 H47            3.3923    -1.7311    -1.4955 H       
  48 H48            4.1833     0.0996     2.3047 H       
  49 H49            6.3193    -1.8760     3.4757 H       
  50 H50            7.6042    -1.2919     2.3912 H       
  51 H51            6.4791    -0.1349     3.1420 H       
  52 C52           13.7756    12.2408     9.6225 C.2     
  53 C53           13.7961    10.7339     9.6142 C.3     
  54 O54           14.8137    12.8591     9.6159 O.2     
  55 O55           12.6042    12.8961     9.6316 O.3     
  56 F56           15.1212    10.2856     9.5991 F       
  57 F57           13.1539    10.2525    10.7601 F       
  58 F58           13.1321    10.2648     8.4757 F       
  59 H59           12.6417    13.8623     9.6367 H       
@<TRIPOS>BOND
   1    1    2 2
   2    1    6 1
   3    1    7 1
   4    2    3 1
   5    3    4 2
   6    3   12 1
   7    4    5 1
   8    4   26 1
   9    5    6 am
  10    5   11 2
  11    6   10 1
  12    7    8 2
  13    7   33 1
  14    8    9 1
  15    8   34 1
  16    9   10 2
  17    9   35 1
  18   10   24 1
  19   12   13 1
  20   12   14 1
  21   12   36 1
  22   13   37 1
  23   13   38 1
  24   13   39 1
  25   14   22 1
  26   14   40 1
  27   15   16 2
  28   15   23 1
  29   16   17 1
  30   16   41 1
  31   17   18 1
  32   17   42 1
  33   18   19 ar
  34   18   23 ar
  35   19   20 ar
  36   20   21 ar
  37   20   43 1
  38   21   22 ar
  39   22   23 ar
  40   24   44 1
  41   24   45 1
  42   24   46 1
  43   25   26 ar
  44   25   30 ar
  45   25   47 1
  46   26   27 ar
  47   27   28 ar
  48   27   48 1
  49   28   29 ar
  50   28   31 1
  51   29   30 ar
  52   29   32 1
  53   31   49 1
  54   31   50 1
  55   31   51 1
  56   52   53 1
  57   52   54 2
  58   52   55 1
  59   53   56 1
  60   53   57 1
  61   53   58 1
  62   55   59 1

#	End of record

