#	Name: ASD03200083
#	Creating user name:	WinNT
#	Creation time:	15. 06. 2019 20:34

#	Modifying user name:	WinNT
#	Modification time:	15. 06. 2019 20:34

#	Program:	/corina/corina34_cracker 3.40 0067  02.08.2006

@<TRIPOS>MOLECULE
ASD03200083
  34   35    0    0    0
SMALL
NO_CHARGES


@<TRIPOS>ATOM
   1 C1            -0.0167     1.3773     0.0096 C.ar    
   2 C2             0.0021    -0.0041     0.0020 C.ar    
   3 C3             5.0975    -6.8357    -0.0822 C.3     
   4 C4             5.3058    -7.6122     1.2224 C.3     
   5 C5             2.4814    -7.8018     1.2496 C.3     
   6 C6             2.5590    -7.0061    -0.0577 C.3     
   7 C7             2.5153    -2.6698    -0.0360 C.3     
   8 C8             2.3371    -4.1894    -0.0419 C.3     
   9 C9             3.6896    -4.8538    -0.0584 C.2     
  10 C10            1.2129    -0.6805    -0.0132 C.ar    
  11 C11            2.4035     0.0312    -0.0208 C.ar    
  12 C12            2.3818     1.4125    -0.0132 C.ar    
  13 O13            4.6969    -4.1784    -0.0649 O.2     
  14 N14            3.7798    -6.1985    -0.0661 N.am    
  15 S15            3.9707    -8.8329     1.3969 S.3     
  16 O16            1.2328    -2.0398    -0.0203 O.3     
  17 C17            1.1725     2.0864     0.0021 C.ar    
  18 F18            1.1527     3.4373     0.0096 F       
  19 H19           -0.9593     1.9043     0.0169 H       
  20 H20           -0.9256    -0.5570     0.0083 H       
  21 H21            5.8693    -6.0719    -0.1775 H       
  22 H22            5.1590    -7.5217    -0.9270 H       
  23 H23            6.2676    -8.1244     1.1931 H       
  24 H24            5.2826    -6.9223     2.0659 H       
  25 H25            2.4284    -7.1139     2.0934 H       
  26 H26            1.5950    -8.4361     1.2391 H       
  27 H27            2.5735    -7.6952    -0.9022 H       
  28 H28            1.6905    -6.3524    -0.1372 H       
  29 H29            3.0767    -2.3733     0.8501 H       
  30 H30            3.0593    -2.3643    -0.9298 H       
  31 H31            1.7931    -4.4949     0.8519 H       
  32 H32            1.7757    -4.4859    -0.9279 H       
  33 H33            3.3469    -0.4943    -0.0323 H       
  34 H34            3.3086     1.9669    -0.0191 H       
@<TRIPOS>BOND
   1    1    2 ar
   2    1   17 ar
   3    1   19 1
   4    2   10 ar
   5    2   20 1
   6    3   14 1
   7    3    4 1
   8    3   21 1
   9    3   22 1
  10    4   15 1
  11    4   23 1
  12    4   24 1
  13    5   25 1
  14    5   26 1
  15    5    6 1
  16    5   15 1
  17    6   27 1
  18    6   28 1
  19    6   14 1
  20    7    8 1
  21    7   16 1
  22    7   29 1
  23    7   30 1
  24    8    9 1
  25    8   31 1
  26    8   32 1
  27    9   13 2
  28    9   14 am
  29   10   16 1
  30   10   11 ar
  31   11   33 1
  32   11   12 ar
  33   12   34 1
  34   12   17 ar
  35   17   18 1

#	End of record

