#	Name: ASD01152473
#	Creating user name:	WinNT
#	Creation time:	15. 06. 2019 19:05

#	Modifying user name:	WinNT
#	Modification time:	15. 06. 2019 19:05

#	Program:	/corina/corina34_cracker 3.40 0067  02.08.2006

@<TRIPOS>MOLECULE
ASD01152473
  48   51    0    0    0
SMALL
NO_CHARGES


@<TRIPOS>ATOM
   1 C1             0.1105     1.1570    -0.6963 C.2     
   2 N2             0.0183    -0.1437    -0.6177 N.2     
   3 N3            -1.1209    -0.7663    -0.1080 N.am    
   4 C4            -2.2619    -0.0996     0.1333 C.2     
   5 C5            -2.3933     1.3531    -0.2594 C.3     
   6 C6            -1.0093     1.9734    -0.2039 C.2     
   7 C7            -2.9570     1.4574    -1.6779 C.3     
   8 O8            -0.8369     3.0970     0.2216 O.2     
   9 C9            -1.0737    -2.1392     0.1620 C.ar    
  10 O10           -3.1906    -0.6666     0.6685 O.2     
  11 C11           -3.2003     2.9055    -2.0166 C.ar    
  12 C12           -0.0102    -2.6697     0.8788 C.ar    
  13 C13           -2.0944    -2.9705    -0.2825 C.ar    
  14 C14           -2.0494    -4.3254    -0.0164 C.ar    
  15 C15           -0.9885    -4.8585     0.6937 C.ar    
  16 C16            0.0335    -4.0301     1.1451 C.ar    
  17 C17           -2.2046     3.6616    -2.6079 C.ar    
  18 C18           -4.4262     3.4921    -1.7440 C.ar    
  19 N19           -4.6657     4.7544    -2.0303 N.ar    
  20 C20           -3.7479     5.5275    -2.5924 C.ar    
  21 C21           -2.4830     4.9968    -2.9008 C.ar    
  22 F22           -0.9475    -6.1838     0.9528 F       
  23 O23           -3.7394     6.8193    -2.9770 O.3     
  24 C24           -2.5509     7.1561    -3.5082 C.2     
  25 C25           -1.7257     6.1005    -3.5002 C.2     
  26 N26            1.1054    -4.5690     1.8677 N.am    
  27 C27            1.7698    -3.8055     2.7576 C.2     
  28 O28            1.5003    -2.6279     2.8670 O.2     
  29 C29            2.8477    -4.4147     3.6167 C.3     
  30 O30            1.2202     1.7435    -1.2170 O.3     
  31 C31            2.2628     0.8755    -1.6660 C.3     
  32 H32           -3.0538     1.8662     0.4397 H       
  33 H33           -2.2433     1.0339    -2.3846 H       
  34 H34           -3.8964     0.9077    -1.7369 H       
  35 H35            0.7822    -2.0243     1.2282 H       
  36 H36           -2.9241    -2.5569    -0.8364 H       
  37 H37           -2.8440    -4.9694    -0.3629 H       
  38 H38           -1.2406     3.2314    -2.8358 H       
  39 H39           -5.2038     2.8989    -1.2860 H       
  40 H40           -2.2990     8.1349    -3.8888 H       
  41 H41           -0.7084     6.0690    -3.8614 H       
  42 H42            1.3695    -5.4918     1.7277 H       
  43 H43            3.6334    -4.8212     2.9800 H       
  44 H44            3.2682    -3.6495     4.2691 H       
  45 H45            2.4209    -5.2141     4.2225 H       
  46 H46            3.0877     1.4707    -2.0576 H       
  47 H47            2.6159     0.2697    -0.8315 H       
  48 H48            1.8800     0.2240    -2.4516 H       
@<TRIPOS>BOND
   1    1    2 2
   2    1   30 1
   3    1    6 1
   4    2    3 1
   5    3    4 am
   6    3    9 1
   7    4    5 1
   8    4   10 2
   9    5    6 1
  10    5    7 1
  11    5   32 1
  12    6    8 2
  13    7   11 1
  14    7   33 1
  15    7   34 1
  16    9   12 ar
  17    9   13 ar
  18   11   17 ar
  19   11   18 ar
  20   12   16 ar
  21   12   35 1
  22   13   14 ar
  23   13   36 1
  24   14   15 ar
  25   14   37 1
  26   15   16 ar
  27   15   22 1
  28   16   26 1
  29   17   21 ar
  30   17   38 1
  31   18   19 ar
  32   18   39 1
  33   19   20 ar
  34   20   21 ar
  35   20   23 1
  36   21   25 1
  37   23   24 1
  38   24   25 2
  39   24   40 1
  40   25   41 1
  41   26   27 am
  42   26   42 1
  43   27   28 2
  44   27   29 1
  45   29   43 1
  46   29   44 1
  47   29   45 1
  48   30   31 1
  49   31   46 1
  50   31   47 1
  51   31   48 1

#	End of record

