#	Name: ASD01884925
#	Creating user name:	WinNT
#	Creation time:	15. 06. 2019 19:49

#	Modifying user name:	WinNT
#	Modification time:	15. 06. 2019 19:49

#	Program:	/corina/corina34_cracker 3.40 0067  02.08.2006

@<TRIPOS>MOLECULE
ASD01884925
  50   54    0    0    0
SMALL
NO_CHARGES


@<TRIPOS>ATOM
   1 C1            -0.0166     1.3745     0.0096 C.ar    
   2 C2             0.0021    -0.0041     0.0020 C.ar    
   3 C3            -1.1977    -0.7168     0.0101 C.ar    
   4 C4            -2.4129    -0.0322     0.0259 C.ar    
   5 C5            -2.4266     1.3463     0.0334 C.ar    
   6 C6            -1.2307     2.0546     0.0307 C.ar    
   7 C7            -1.1808    -2.1979     0.0015 C.2     
   8 C8            -1.6661    -2.9078     1.0839 C.2     
   9 C9            -0.6726    -2.9008    -1.1182 C.2     
  10 C10           -0.6590    -4.2468    -1.1243 C.2     
  11 N11           -1.1314    -4.9559    -0.0576 N.pl3   
  12 C12           -1.6371    -4.3121     1.0461 C.2     
  13 C13           -1.2394    -6.2874     0.2073 C.2     
  14 N14           -1.7711    -6.4110     1.3958 N.2     
  15 N15           -2.0110    -5.2521     1.9007 N.2     
  16 C16           -0.8227    -7.4134    -0.7036 C.3     
  17 C17           -0.8454    -8.8315    -0.1297 C.3     
  18 N18           -1.2475     3.4502     0.0388 N.pl3   
  19 C19           -2.5249     4.1674     0.0502 C.3     
  20 C20           -2.3277     5.5555     0.6672 C.3     
  21 C21           -3.6489     6.3262     0.6031 C.3     
  22 O22           -4.0838     6.4113    -0.7555 O.3     
  23 C23           -4.3299     5.1447    -1.3698 C.3     
  24 C24           -3.0360     4.3265    -1.3850 C.3     
  25 C25           -1.9043    -8.4008    -1.1465 C.3     
  26 Cl26           1.4751     2.2624     0.0001 Cl      
  27 C27           -2.2175    -2.1864     2.2866 C.3     
  28 F28           -3.6068    -2.0738     2.1664 F       
  29 F29           -1.9065    -2.9062     3.4453 F       
  30 F30           -1.6511    -0.9096     2.3648 F       
  31 H31            0.9443    -0.5318    -0.0105 H       
  32 H32           -3.3426    -0.5817     0.0318 H       
  33 H33           -3.3675     1.8764     0.0452 H       
  34 H34           -0.2951    -2.3549    -1.9702 H       
  35 H35           -0.2698    -4.7723    -1.9838 H       
  36 H36           -0.0373    -7.1725    -1.4200 H       
  37 H37           -0.0746    -9.5239    -0.4684 H       
  38 H38           -1.1616    -8.9501     0.9067 H       
  39 H39           -0.4133     3.9453     0.0369 H       
  40 H40           -3.2523     3.6072     0.6377 H       
  41 H41           -2.0169     5.4512     1.7067 H       
  42 H42           -1.5630     6.0965     0.1099 H       
  43 H43           -4.4025     5.8056     1.1940 H       
  44 H44           -3.5038     7.3302     1.0019 H       
  45 H45           -5.0923     4.6086    -0.8047 H       
  46 H46           -4.6753     5.2976    -2.3922 H       
  47 H47           -2.2856     4.8428    -1.9837 H       
  48 H48           -3.2317     3.3434    -1.8131 H       
  49 H49           -2.9172    -8.2359    -0.7792 H       
  50 H50           -1.8302    -8.8098    -2.1542 H       
@<TRIPOS>BOND
   1    1    2 ar
   2    1   26 1
   3    1    6 ar
   4    2    3 ar
   5    2   31 1
   6    3    4 ar
   7    3    7 1
   8    4    5 ar
   9    4   32 1
  10    5    6 ar
  11    5   33 1
  12    6   18 1
  13    7    8 2
  14    7    9 1
  15    8   27 1
  16    8   12 1
  17    9   10 2
  18    9   34 1
  19   10   11 1
  20   10   35 1
  21   11   12 1
  22   11   13 1
  23   12   15 2
  24   13   14 2
  25   13   16 1
  26   14   15 1
  27   16   25 1
  28   16   17 1
  29   16   36 1
  30   17   25 1
  31   17   37 1
  32   17   38 1
  33   18   19 1
  34   18   39 1
  35   19   20 1
  36   19   24 1
  37   19   40 1
  38   20   21 1
  39   20   41 1
  40   20   42 1
  41   21   22 1
  42   21   43 1
  43   21   44 1
  44   22   23 1
  45   23   24 1
  46   23   45 1
  47   23   46 1
  48   24   47 1
  49   24   48 1
  50   25   49 1
  51   25   50 1
  52   27   28 1
  53   27   29 1
  54   27   30 1

#	End of record

