#	Name: ASD01900441
#	Creating user name:	WinNT
#	Creation time:	15. 06. 2019 19:51

#	Modifying user name:	WinNT
#	Modification time:	15. 06. 2019 19:51

#	Program:	/corina/corina34_cracker 3.40 0067  02.08.2006

@<TRIPOS>MOLECULE
ASD01900441
  35   38    0    0    0
SMALL
NO_CHARGES


@<TRIPOS>ATOM
   1 C1             0.4027     3.6587     0.6888 C.ar    
   2 C2             0.8737     4.6075     1.6163 C.ar    
   3 C3             2.2490     4.7772     1.7720 C.ar    
   4 C4             3.0942     4.0010     1.0037 C.ar    
   5 C5             2.5600     3.0840     0.1079 C.ar    
   6 N6             1.2616     2.9364    -0.0267 N.ar    
   7 N7            -1.3818     4.6184     1.6446 N.2     
   8 N8            -0.2266     5.1856     2.1922 N.pl3   
   9 C9            -1.0594     3.7200     0.7522 C.2     
  10 N10           -1.9504     2.9493    -0.0010 N.pl3   
  11 C11           -3.3287     3.1546     0.1209 C.ar    
  12 C12           -3.8217     4.4281     0.3762 C.ar    
  13 C13           -5.1839     4.6297     0.4960 C.ar    
  14 C14           -6.0589     3.5587     0.3609 C.ar    
  15 C15           -5.5661     2.2882     0.1066 C.ar    
  16 C16           -4.2051     2.0865    -0.0190 C.ar    
  17 O17           -7.3996     3.7569     0.4787 O.3     
  18 C18           -8.0737     4.2064    -0.6067 C.ar    
  19 N19           -9.3668     4.4675    -0.5010 N.ar    
  20 C20          -10.0552     4.9082    -1.5412 C.ar    
  21 C21           -9.4056     5.0954    -2.7512 C.ar    
  22 C22           -8.0510     4.8119    -2.8259 C.ar    
  23 N23           -7.4221     4.3789    -1.7456 N.ar    
  24 F24           -5.6644     5.8676     0.7447 F       
  25 H25            2.6427     5.4968     2.4746 H       
  26 H26            4.1648     4.1068     1.0987 H       
  27 H27            3.2257     2.4799    -0.4906 H       
  28 H28           -0.2076     5.8779     2.8715 H       
  29 H29           -1.6127     2.2722    -0.6080 H       
  30 H30           -3.1410     5.2600     0.4814 H       
  31 H31           -6.2468     1.4562     0.0021 H       
  32 H32           -3.8224     1.0971    -0.2215 H       
  33 H33          -11.1104     5.1192    -1.4488 H       
  34 H34           -9.9432     5.4538    -3.6166 H       
  35 H35           -7.5146     4.9468    -3.7536 H       
@<TRIPOS>BOND
   1    1    2 ar
   2    1    6 ar
   3    1    9 1
   4    2    3 ar
   5    2    8 1
   6    3    4 ar
   7    3   25 1
   8    4    5 ar
   9    4   26 1
  10    5    6 ar
  11    5   27 1
  12    7    8 1
  13    7    9 2
  14    8   28 1
  15    9   10 1
  16   10   11 1
  17   10   29 1
  18   11   12 ar
  19   11   16 ar
  20   12   13 ar
  21   12   30 1
  22   13   14 ar
  23   13   24 1
  24   14   15 ar
  25   14   17 1
  26   15   16 ar
  27   15   31 1
  28   16   32 1
  29   17   18 1
  30   18   19 ar
  31   18   23 ar
  32   19   20 ar
  33   20   21 ar
  34   20   33 1
  35   21   22 ar
  36   21   34 1
  37   22   23 ar
  38   22   35 1

#	End of record

