#	Name: ASD03731674
#	Creating user name:	WinNT
#	Creation time:	15. 06. 2019 20:46

#	Modifying user name:	WinNT
#	Modification time:	15. 06. 2019 20:46

#	Program:	/corina/corina34_cracker 3.40 0067  02.08.2006

@<TRIPOS>MOLECULE
ASD03731674
  38   39    0    0    0
SMALL
NO_CHARGES


@<TRIPOS>ATOM
   1 C1            -0.1381     1.4671     0.0337 C.2     
   2 C2            -0.0865    -0.0064     0.0194 C.ar    
   3 C3             1.1389    -0.6644    -0.1386 C.ar    
   4 C4             1.1821    -2.0441    -0.1508 C.ar    
   5 C5             0.0125    -2.7784    -0.0072 C.ar    
   6 C6            -1.2085    -2.1275     0.1502 C.ar    
   7 C7            -1.2606    -0.7506     0.1694 C.ar    
   8 O8             0.8848     2.1126    -0.0919 O.2     
   9 N9            -1.3197     2.0987     0.1803 N.am    
  10 S10           -1.3777     3.7536     0.1963 S.o2    
  11 O11           -2.7529     4.0542     0.3906 O.2     
  12 O12           -0.4026     4.1291     1.1593 O.2     
  13 C13           -0.8485     4.2412    -1.4689 C.3     
  14 F14           -2.3434    -2.8473     0.2891 F       
  15 F15            2.2772     0.0495    -0.2792 F       
  16 O16            0.0593    -4.1349    -0.0206 O.3     
  17 C17           -0.1521    -4.7685    -1.2033 C.ar    
  18 C18           -0.0449    -6.1568    -1.2775 C.ar    
  19 C19           -0.2596    -6.8027    -2.4795 C.ar    
  20 C20           -0.5841    -6.0615    -3.6194 C.ar    
  21 C21           -0.6898    -4.6709    -3.5378 C.ar    
  22 C22           -0.4798    -4.0332    -2.3338 C.ar    
  23 O23            0.2714    -6.8748    -0.1668 O.3     
  24 C24            0.3642    -8.2930    -0.3157 C.3     
  25 C25           -0.8072    -6.7261    -4.8680 C.1     
  26 N26           -0.9842    -7.2533    -5.8586 N.1     
  27 H27            2.1268    -2.5530    -0.2726 H       
  28 H28           -2.2076    -0.2471     0.2960 H       
  29 H29           -2.1361     1.5838     0.2765 H       
  30 H30           -1.5308     3.8172    -2.2056 H       
  31 H31           -0.8569     5.3282    -1.5490 H       
  32 H32            0.1601     3.8711    -1.6525 H       
  33 H33           -0.1766    -7.8779    -2.5385 H       
  34 H34           -0.9400    -4.0959    -4.4170 H       
  35 H35           -0.5665    -2.9585    -2.2711 H       
  36 H36            0.6221    -8.7428     0.6431 H       
  37 H37           -0.5939    -8.6861    -0.6556 H       
  38 H38            1.1354    -8.5317    -1.0481 H       
@<TRIPOS>BOND
   1    1    2 1
   2    1    8 2
   3    1    9 am
   4    2    3 ar
   5    2    7 ar
   6    3    4 ar
   7    3   15 1
   8    4    5 ar
   9    4   27 1
  10    5    6 ar
  11    5   16 1
  12    6    7 ar
  13    6   14 1
  14    7   28 1
  15    9   10 am
  16    9   29 1
  17   10   11 2
  18   10   12 2
  19   10   13 1
  20   13   30 1
  21   13   31 1
  22   13   32 1
  23   16   17 1
  24   17   18 ar
  25   17   22 ar
  26   18   19 ar
  27   18   23 1
  28   19   20 ar
  29   19   33 1
  30   20   21 ar
  31   20   25 1
  32   21   22 ar
  33   21   34 1
  34   22   35 1
  35   23   24 1
  36   24   36 1
  37   24   37 1
  38   24   38 1
  39   25   26 3

#	End of record

