#	Name: ASD00460039
#	Creating user name:	WinNT
#	Creation time:	15. 06. 2019 18:36

#	Modifying user name:	WinNT
#	Modification time:	15. 06. 2019 18:36

#	Program:	/corina/corina34_cracker 3.40 0067  02.08.2006

@<TRIPOS>MOLECULE
ASD00460039
  43   46    0    0    0
SMALL
NO_CHARGES


@<TRIPOS>ATOM
   1 C1            -0.0184     1.5028     0.0103 C.2     
   2 C2             0.0021    -0.0041     0.0020 C.3     
   3 N3            -0.0988    -0.5027     1.3801 N.3     
   4 C4            -0.0819    -1.9713     1.4111 C.3     
   5 C5             0.4220    -2.4397     2.7519 C.ar    
   6 C6             1.0221    -3.7038     2.8784 C.ar    
   7 C7             1.4901    -4.1269     4.1478 C.ar    
   8 C8             1.3455    -3.2737     5.2547 C.ar    
   9 C9             0.7597    -2.0555     5.0941 C.ar    
  10 C10            0.3032    -1.6380     3.8456 C.ar    
  11 C11           -1.4988    -2.5025     1.1849 C.3     
  12 C12            1.0702     2.2883     0.0041 C.2     
  13 C13            0.5978     3.6748     0.0155 C.ar    
  14 C14           -0.8072     3.6067     0.0283 C.ar    
  15 N15           -1.1493     2.2730     0.0193 N.pl3   
  16 C16            1.2350     4.9173     0.0155 C.ar    
  17 C17            0.4892     6.0620     0.0278 C.ar    
  18 C18           -0.8976     6.0001     0.0404 C.ar    
  19 C19           -1.5467     4.7851     0.0411 C.ar    
  20 C20            1.1672    -4.5572     1.7712 C.ar    
  21 C21            1.7533    -5.7748     1.9318 C.ar    
  22 C22            2.2130    -6.1911     3.1800 C.ar    
  23 C23            2.0900    -5.3916     4.2744 C.ar    
  24 H24           -0.8403    -0.3757    -0.5814 H       
  25 H25            0.9341    -0.3524    -0.4431 H       
  26 H26            0.6350    -0.1204     1.9576 H       
  27 H27            0.5755    -2.3438     0.6255 H       
  28 H28            1.6969    -3.5830     6.2280 H       
  29 H29            0.6494    -1.4018     5.9467 H       
  30 H30           -0.1576    -0.6664     3.7454 H       
  31 H31           -2.1562    -2.1300     1.9705 H       
  32 H32           -1.8633    -2.1637     0.2151 H       
  33 H33           -1.4863    -3.5922     1.2079 H       
  34 H34            2.0991     1.9602    -0.0068 H       
  35 H35           -2.0567     1.9304     0.0248 H       
  36 H36            2.3135     4.9732     0.0061 H       
  37 H37            0.9826     7.0227     0.0281 H       
  38 H38           -1.4735     6.9137     0.0505 H       
  39 H39           -2.6260     4.7474     0.0510 H       
  40 H40            0.8151    -4.2484     0.7980 H       
  41 H41            1.8635    -6.4287     1.0793 H       
  42 H42            2.6738    -7.1627     3.2802 H       
  43 H43            2.4512    -5.7273     5.2352 H       
@<TRIPOS>BOND
   1    1    2 1
   2    1   12 2
   3    1   15 1
   4    2    3 1
   5    2   24 1
   6    2   25 1
   7    3    4 1
   8    3   26 1
   9    4    5 1
  10    4   11 1
  11    4   27 1
  12    5    6 ar
  13    5   10 ar
  14    6    7 ar
  15    6   20 ar
  16    7    8 ar
  17    7   23 ar
  18    8    9 ar
  19    8   28 1
  20    9   10 ar
  21    9   29 1
  22   10   30 1
  23   11   31 1
  24   11   32 1
  25   11   33 1
  26   12   13 1
  27   12   34 1
  28   13   14 ar
  29   13   16 ar
  30   14   15 1
  31   14   19 ar
  32   15   35 1
  33   16   17 ar
  34   16   36 1
  35   17   18 ar
  36   17   37 1
  37   18   19 ar
  38   18   38 1
  39   19   39 1
  40   20   21 ar
  41   20   40 1
  42   21   22 ar
  43   21   41 1
  44   22   23 ar
  45   22   42 1
  46   23   43 1

#	End of record

