#	Name: ASD00844747
#	Creating user name:	WinNT
#	Creation time:	15. 06. 2019 18:50

#	Modifying user name:	WinNT
#	Modification time:	15. 06. 2019 18:50

#	Program:	/corina/corina34_cracker 3.40 0067  02.08.2006

@<TRIPOS>MOLECULE
ASD00844747
  83   88    0    0    0
SMALL
NO_CHARGES


@<TRIPOS>ATOM
   1 C1             0.7711     1.2497    -0.4652 C.ar    
   2 C2             1.0111    -0.0942    -0.7112 C.ar    
   3 C3             0.9026    -1.0160     0.3202 C.ar    
   4 C4             0.5561    -0.5937     1.5888 C.ar    
   5 C5             0.3169     0.7466     1.8313 C.ar    
   6 C6             0.4247     1.6671     0.8055 C.ar    
   7 C7             1.1622    -2.4769     0.0563 C.3     
   8 C8             0.8488    -3.3021     1.2862 C.2     
   9 C9             0.3369    -2.9597    -1.1381 C.3     
  10 C10           -1.1201    -2.6602    -0.8958 C.2     
  11 N11           -2.0507    -3.0875    -1.7721 N.am    
  12 O12           -1.4552    -2.0346     0.0876 O.2     
  13 C13           -3.4605    -2.7061    -1.6123 C.3     
  14 C14           -4.3175    -3.9758    -1.6088 C.3     
  15 C15           -4.0253    -4.7872    -2.8731 C.3     
  16 C16           -2.5515    -5.1992    -2.8877 C.3     
  17 C17           -1.6736    -3.9387    -2.9088 C.3     
  18 C18           -4.9047    -6.0391    -2.8900 C.3     
  19 C19           -6.3798    -5.6284    -2.8772 C.3     
  20 C20           -7.2540    -6.8821    -2.9557 C.3     
  21 N21           -6.9436    -7.6205    -4.1864 N.3     
  22 C22           -5.5444    -8.0662    -4.1997 C.3     
  23 C23           -4.6192    -6.8479    -4.1584 C.3     
  24 H24           -7.5725    -8.4000    -4.3088 H       
  25 O25           -0.2301    -3.4013     1.8310 O.2     
  26 N26            1.9897    -3.9046     1.6605 N.am    
  27 C27            2.6355    -2.7188    -0.1814 C.ar    
  28 C28            3.0560    -3.5859     0.8243 C.ar    
  29 C29            3.5121    -2.2607    -1.1320 C.ar    
  30 C30            4.8510    -2.6664    -1.0974 C.ar    
  31 C31            5.2808    -3.5379    -0.0894 C.ar    
  32 C32            4.3900    -3.9922     0.8593 C.ar    
  33 F33            6.5713    -3.9354    -0.0473 F       
  34 C34            1.7788    -6.5464     2.4025 C.ar    
  35 C35            2.8113    -7.3456     1.9485 C.ar    
  36 C36            0.4845    -7.0316     2.4175 C.ar    
  37 C37            0.2226    -8.3159     1.9784 C.ar    
  38 C38            1.2551    -9.1149     1.5239 C.ar    
  39 C39            2.5494    -8.6297     1.5089 C.ar    
  40 H40            1.0505   -10.1183     1.1809 H       
  41 H41            3.8225    -6.9665     1.9368 H       
  42 S42            2.1136    -4.9119     2.9690 S.o2    
  43 O43            3.4795    -4.8948     3.3606 O.2     
  44 O44            1.0496    -4.5649     3.8447 O.2     
  45 O45            1.3514    -0.5073    -1.9604 O.3     
  46 C46            1.3746     0.4853    -2.9881 C.3     
  47 C47            1.8550    -0.1463    -4.2963 C.3     
  48 F48            3.1045    -0.7424    -4.0951 F       
  49 F49            0.9365    -1.1168    -4.7104 F       
  50 C50            5.7739    -2.1943    -2.0853 C.1     
  51 N51            6.5061    -1.8199    -2.8690 N.1     
  52 H52            0.8592     1.9697    -1.2654 H       
  53 H53            0.4716    -1.3108     2.3919 H       
  54 H54            0.0454     1.0747     2.8238 H       
  55 H55            0.2374     2.7132     0.9975 H       
  56 H56            0.6683    -2.4457    -2.0403 H       
  57 H57            0.4712    -4.0342    -1.2620 H       
  58 H58           -3.5907    -2.1748    -0.6695 H       
  59 H59           -3.7616    -2.0643    -2.4403 H       
  60 H60           -4.0782    -4.5738    -0.7294 H       
  61 H61           -5.3725    -3.7027    -1.5875 H       
  62 H62           -4.2413    -4.1800    -3.7522 H       
  63 H63           -2.3289    -5.7856    -1.9962 H       
  64 H64           -2.3495    -5.7967    -3.7766 H       
  65 H65           -1.8302    -3.3999    -3.8433 H       
  66 H66           -0.6249    -4.2222    -2.8194 H       
  67 H67           -4.6885    -6.6480    -2.0122 H       
  68 H68           -6.5993    -5.0888    -1.9560 H       
  69 H69           -6.5863    -4.9866    -3.7337 H       
  70 H70           -7.0569    -7.5169    -2.0918 H       
  71 H71           -8.3047    -6.5924    -2.9612 H       
  72 H72           -5.3554    -8.6954    -3.3300 H       
  73 H73           -5.3536    -8.6365    -5.1088 H       
  74 H74           -4.7980    -6.2252    -5.0350 H       
  75 H75           -3.5809    -7.1795    -4.1525 H       
  76 H76            3.1697    -1.5890    -1.9053 H       
  77 H77            4.7269    -4.6645     1.6346 H       
  78 H78           -0.3221    -6.4073     2.7726 H       
  79 H79           -0.7885    -8.6952     1.9907 H       
  80 H80            3.3561    -9.2541     1.1542 H       
  81 H81            0.3715     0.8887    -3.1263 H       
  82 H82            2.0532     1.2888    -2.7019 H       
  83 H83            1.9393     0.6245    -5.0624 H       
@<TRIPOS>BOND
   1    1    2 ar
   2    1    6 ar
   3    1   52 1
   4    2    3 ar
   5    2   45 1
   6    3    4 ar
   7    3    7 1
   8    4    5 ar
   9    4   53 1
  10    5    6 ar
  11    5   54 1
  12    6   55 1
  13    7    8 1
  14    7    9 1
  15    7   27 1
  16    8   25 2
  17    8   26 am
  18    9   10 1
  19    9   56 1
  20    9   57 1
  21   10   11 am
  22   10   12 2
  23   11   13 1
  24   11   17 1
  25   13   14 1
  26   13   58 1
  27   13   59 1
  28   14   15 1
  29   14   60 1
  30   14   61 1
  31   15   16 1
  32   15   18 1
  33   15   62 1
  34   16   17 1
  35   16   63 1
  36   16   64 1
  37   17   65 1
  38   17   66 1
  39   18   19 1
  40   18   23 1
  41   18   67 1
  42   19   20 1
  43   19   68 1
  44   19   69 1
  45   20   21 1
  46   20   70 1
  47   20   71 1
  48   21   22 1
  49   21   24 1
  50   22   23 1
  51   22   72 1
  52   22   73 1
  53   23   74 1
  54   23   75 1
  55   26   42 am
  56   26   28 1
  57   27   28 ar
  58   27   29 ar
  59   28   32 ar
  60   29   30 ar
  61   29   76 1
  62   30   31 ar
  63   30   50 1
  64   31   32 ar
  65   31   33 1
  66   32   77 1
  67   34   35 ar
  68   34   36 ar
  69   34   42 1
  70   35   41 1
  71   35   39 ar
  72   36   37 ar
  73   36   78 1
  74   37   38 ar
  75   37   79 1
  76   38   39 ar
  77   38   40 1
  78   39   80 1
  79   42   43 2
  80   42   44 2
  81   45   46 1
  82   46   47 1
  83   46   81 1
  84   46   82 1
  85   47   48 1
  86   47   49 1
  87   47   83 1
  88   50   51 3

#	End of record

