#	Name: ASD01420151
#	Creating user name:	WinNT
#	Creation time:	15. 06. 2019 19:20

#	Modifying user name:	WinNT
#	Modification time:	15. 06. 2019 19:20

#	Program:	/corina/corina34_cracker 3.40 0067  02.08.2006

@<TRIPOS>MOLECULE
ASD01420151
  53   56    0    0    0
SMALL
NO_CHARGES


@<TRIPOS>ATOM
   1 C1             2.5305     0.2007     1.2572 C.ar    
   2 C2             1.6600    -0.7394     0.7472 C.ar    
   3 C3             0.8554    -0.4420    -0.3443 C.ar    
   4 C4             0.9169     0.8024    -0.9338 C.ar    
   5 C5             2.6088     1.4605     0.6789 C.ar    
   6 O6             3.3458     2.5572     0.9511 O.3     
   7 C7             1.7935     1.7624    -0.4266 C.ar    
   8 C8             2.1145     3.1449    -0.7891 C.2     
   9 C9             3.0600     3.5540     0.0905 C.2     
  10 C10            1.5147     3.9492    -1.9136 C.3     
  11 C11            3.6843     4.8933     0.1045 C.ar    
  12 C12            2.8893     6.0372     0.0099 C.ar    
  13 C13            3.4755     7.2847     0.0239 C.ar    
  14 C14            4.8549     7.4046     0.1313 C.ar    
  15 C15            5.6491     6.2694     0.2255 C.ar    
  16 C16            5.0703     5.0184     0.2181 C.ar    
  17 O17            5.4289     8.6360     0.1438 O.3     
  18 Cl18          -0.2320    -1.6422    -0.9695 Cl      
  19 C19            6.8525     8.6870     0.2566 C.3     
  20 C20            7.3055    10.1243     0.2538 C.2     
  21 C21            6.4175    11.0959     0.1560 C.2     
  22 N22            8.6576    10.4267     0.3540 N.pl3   
  23 C23            9.6734     9.3636     0.3198 C.3     
  24 C24            9.1117    11.8189     0.4910 C.3     
  25 C25           10.0638    11.9048     1.6886 C.3     
  26 N26           11.1368    10.9143     1.5290 N.3     
  27 C27           10.6045     9.5412     1.5239 C.3     
  28 C28           12.1640    11.0792     2.5662 C.3     
  29 H29            3.1483    -0.0416     2.1093 H       
  30 H30            1.6039    -1.7176     1.2015 H       
  31 H31            0.2909     1.0330    -1.7832 H       
  32 H32            0.5905     4.4163    -1.5734 H       
  33 H33            2.2189     4.7211    -2.2241 H       
  34 H34            1.3009     3.2921    -2.7565 H       
  35 H35            1.8166     5.9447    -0.0743 H       
  36 H36            2.8613     8.1700    -0.0492 H       
  37 H37            6.7215     6.3669     0.3089 H       
  38 H38            5.6883     4.1361     0.2960 H       
  39 H39            7.1605     8.2109     1.1875 H       
  40 H40            7.3028     8.1625    -0.5861 H       
  41 H41            6.7342    12.1260     0.2262 H       
  42 H42            5.3741    10.8608     0.0058 H       
  43 H43            9.1864     8.3899     0.3741 H       
  44 H44           10.2495     9.4371    -0.6025 H       
  45 H45            9.6347    12.1243    -0.4153 H       
  46 H46            8.2531    12.4693     0.6584 H       
  47 H47           10.4959    12.9042     1.7388 H       
  48 H48            9.5130    11.6996     2.6066 H       
  49 H49           10.0472     9.3647     2.4438 H       
  50 H50           11.4279     8.8302     1.4549 H       
  51 H51           11.7118    10.9492     3.5494 H       
  52 H52           12.9463    10.3335     2.4246 H       
  53 H53           12.5961    12.0773     2.4941 H       
@<TRIPOS>BOND
   1    1    2 ar
   2    1    5 ar
   3    1   29 1
   4    2    3 ar
   5    2   30 1
   6    3    4 ar
   7    3   18 1
   8    4    7 ar
   9    4   31 1
  10    5    7 ar
  11    5    6 1
  12    6    9 1
  13    7    8 1
  14    8    9 2
  15    8   10 1
  16    9   11 1
  17   10   32 1
  18   10   33 1
  19   10   34 1
  20   11   12 ar
  21   11   16 ar
  22   12   13 ar
  23   12   35 1
  24   13   14 ar
  25   13   36 1
  26   14   15 ar
  27   14   17 1
  28   15   16 ar
  29   15   37 1
  30   16   38 1
  31   17   19 1
  32   19   20 1
  33   19   39 1
  34   19   40 1
  35   20   21 2
  36   20   22 1
  37   21   41 1
  38   21   42 1
  39   22   24 1
  40   22   23 1
  41   23   27 1
  42   23   43 1
  43   23   44 1
  44   24   25 1
  45   24   45 1
  46   24   46 1
  47   25   26 1
  48   25   47 1
  49   25   48 1
  50   26   27 1
  51   26   28 1
  52   27   49 1
  53   27   50 1
  54   28   51 1
  55   28   52 1
  56   28   53 1

#	End of record

