#	Name: ASD04590133
#	Creating user name:	WinNT
#	Creation time:	15. 06. 2019 20:50

#	Modifying user name:	WinNT
#	Modification time:	15. 06. 2019 20:50

#	Program:	/corina/corina34_cracker 3.40 0067  02.08.2006

@<TRIPOS>MOLECULE
ASD04590133
  44   46    0    0    0
SMALL
NO_CHARGES


@<TRIPOS>ATOM
   1 N1            -0.0471     1.2742    -0.0330 N.pl3   
   2 N2            -0.0187    -0.0096    -0.0068 N.2     
   3 C3             1.2224    -0.4415    -0.1212 C.2     
   4 C4             2.0532     0.7037    -0.2302 C.2     
   5 C5             1.2101     1.7687    -0.1699 C.2     
   6 C6             1.6634    -1.8491    -0.1335 C.2     
   7 N7             0.7571    -2.8402    -0.0209 N.am    
   8 O8             2.8446    -2.1152    -0.2452 O.2     
   9 N9             3.4487     0.7312    -0.3700 N.am    
  10 C10            4.0937     1.9111    -0.4613 C.2     
  11 C11            6.3813     1.9812     0.5234 C.ar    
  12 C12            5.5627     1.9400    -0.6085 C.ar    
  13 N13            1.1519    -4.1429    -0.1348 N.3     
  14 C14            0.3858    -4.8360    -1.1800 C.3     
  15 C15            0.9110    -6.2656    -1.3305 C.3     
  16 N16            0.7938    -6.9658    -0.0438 N.3     
  17 C17            1.5599    -6.2728     1.0013 C.3     
  18 C18            1.0347    -4.8431     1.1519 C.3     
  19 C19            7.7542     2.0077     0.3776 C.ar    
  20 C20            8.3197     1.9939    -0.8848 C.ar    
  21 C21            7.5161     1.9527    -2.0100 C.ar    
  22 C22            6.1415     1.9259    -1.8805 C.ar    
  23 O23            3.4659     2.9517    -0.4224 O.2     
  24 Cl24           5.6738     2.0064     2.1085 Cl      
  25 Cl25           5.1351     1.8742    -3.2940 Cl      
  26 C26            1.2184    -8.3668    -0.1663 C.3     
  27 H27           -0.8512     1.8129     0.0316 H       
  28 H28            1.4878     2.8111    -0.2216 H       
  29 H29           -0.1756    -2.6284     0.1410 H       
  30 H30            3.9495    -0.0990    -0.4011 H       
  31 H31           -0.6676    -4.8630    -0.9012 H       
  32 H32            0.4985    -4.3056    -2.1256 H       
  33 H33            0.3252    -6.7907    -2.0850 H       
  34 H34            1.9570    -6.2385    -1.6358 H       
  35 H35            1.4472    -6.8031     1.9469 H       
  36 H36            2.6133    -6.2457     0.7225 H       
  37 H37            1.6205    -4.3181     1.9063 H       
  38 H38           -0.0114    -4.8703     1.4572 H       
  39 H39            8.3882     2.0395     1.2514 H       
  40 H40            9.3941     2.0155    -0.9925 H       
  41 H41            7.9648     1.9422    -2.9923 H       
  42 H42            2.2582    -8.4042    -0.4911 H       
  43 H43            1.1216    -8.8616     0.8001 H       
  44 H44            0.5904    -8.8741    -0.8987 H       
@<TRIPOS>BOND
   1    1    2 1
   2    1    5 1
   3    1   27 1
   4    2    3 2
   5    3    4 1
   6    3    6 1
   7    4    5 2
   8    4    9 1
   9    5   28 1
  10    6    7 am
  11    6    8 2
  12    7   13 1
  13    7   29 1
  14    9   10 am
  15    9   30 1
  16   10   23 2
  17   10   12 1
  18   11   12 ar
  19   11   19 ar
  20   11   24 1
  21   12   22 ar
  22   13   14 1
  23   13   18 1
  24   14   15 1
  25   14   31 1
  26   14   32 1
  27   15   16 1
  28   15   33 1
  29   15   34 1
  30   16   17 1
  31   16   26 1
  32   17   18 1
  33   17   35 1
  34   17   36 1
  35   18   37 1
  36   18   38 1
  37   19   20 ar
  38   19   39 1
  39   20   21 ar
  40   20   40 1
  41   21   22 ar
  42   21   41 1
  43   22   25 1
  44   26   42 1
  45   26   43 1
  46   26   44 1

#	End of record

