#	Name: ASD01915989
#	Creating user name:	WinNT
#	Creation time:	15. 06. 2019 20:06

#	Modifying user name:	WinNT
#	Modification time:	15. 06. 2019 20:06

#	Program:	/corina/corina34_cracker 3.40 0067  02.08.2006

@<TRIPOS>MOLECULE
ASD01915989
  41   42    0    0    0
SMALL
NO_CHARGES


@<TRIPOS>ATOM
   1 C1            -0.0192     1.4094     0.1334 C.ar    
   2 C2            -0.0051     0.0081     0.1169 C.ar    
   3 C3             1.2264    -0.6596     0.0580 C.ar    
   4 C4             2.3814     0.0969     0.0184 C.ar    
   5 C5             2.2853     1.4890     0.0382 C.ar    
   6 N6             1.1019     2.0906     0.0944 N.ar    
   7 C7             3.5177     2.3060    -0.0034 C.2     
   8 N8             3.4341     3.6468    -0.1125 N.am    
   9 O9             4.6059     1.7682     0.0608 O.2     
  10 C10            4.6457     4.4657    -0.0260 C.3     
  11 C11            5.6136     4.0638    -1.1407 C.3     
  12 C12            4.2753     5.9422    -0.1799 C.3     
  13 C13            5.3136     4.2464     1.3329 C.3     
  14 C14           -1.2308    -0.7311     0.1601 C.1     
  15 C15           -2.2357    -1.3371     0.1955 C.1     
  16 C16           -3.4614    -2.0764     0.2386 C.ar    
  17 C17           -3.4495    -3.4774     0.2223 C.ar    
  18 C18           -4.6898    -1.4127     0.3037 C.ar    
  19 N19           -5.8168    -2.0918     0.3439 N.ar    
  20 C20           -5.8376    -3.4109     0.3248 C.ar    
  21 C21           -4.6633    -4.1442     0.2662 C.ar    
  22 C22            2.1315     4.2851    -0.3176 C.3     
  23 F23           -4.7017    -5.4945     0.2470 F       
  24 H24           -0.9623     1.9341     0.1741 H       
  25 H25            1.2709    -1.7386     0.0442 H       
  26 H26            3.3477    -0.3834    -0.0269 H       
  27 H27            5.1378     4.2201    -2.1089 H       
  28 H28            6.5151     4.6732    -1.0764 H       
  29 H29            5.8774     3.0120    -1.0311 H       
  30 H30            3.5858     6.2285     0.6142 H       
  31 H31            5.1768     6.5516    -0.1156 H       
  32 H32            3.7995     6.0984    -1.1481 H       
  33 H33            5.5774     3.1946     1.4426 H       
  34 H34            6.2151     4.8558     1.3973 H       
  35 H35            4.6240     4.5328     2.1271 H       
  36 H36           -2.5187    -4.0232     0.1762 H       
  37 H37           -4.7146    -0.3331     0.3216 H       
  38 H38           -6.7852    -3.9277     0.3598 H       
  39 H39            1.6401     4.4256     0.6451 H       
  40 H40            2.2730     5.2533    -0.7980 H       
  41 H41            1.5123     3.6515    -0.9526 H       
@<TRIPOS>BOND
   1    1    2 ar
   2    1    6 ar
   3    1   24 1
   4    2    3 ar
   5    2   14 1
   6    3    4 ar
   7    3   25 1
   8    4    5 ar
   9    4   26 1
  10    5    6 ar
  11    5    7 1
  12    7    8 am
  13    7    9 2
  14    8   10 1
  15    8   22 1
  16   10   11 1
  17   10   12 1
  18   10   13 1
  19   11   27 1
  20   11   28 1
  21   11   29 1
  22   12   30 1
  23   12   31 1
  24   12   32 1
  25   13   33 1
  26   13   34 1
  27   13   35 1
  28   14   15 3
  29   15   16 1
  30   16   17 ar
  31   16   18 ar
  32   17   21 ar
  33   17   36 1
  34   18   19 ar
  35   18   37 1
  36   19   20 ar
  37   20   21 ar
  38   20   38 1
  39   21   23 1
  40   22   39 1
  41   22   40 1
  42   22   41 1

#	End of record

