#	Name: ASD01885864
#	Creating user name:	WinNT
#	Creation time:	15. 06. 2019 19:50

#	Modifying user name:	WinNT
#	Modification time:	15. 06. 2019 19:50

#	Program:	/corina/corina34_cracker 3.40 0067  02.08.2006

@<TRIPOS>MOLECULE
ASD01885864
  44   47    0    0    0
SMALL
NO_CHARGES


@<TRIPOS>ATOM
   1 C1            -0.0171     1.4062     0.0098 C.ar    
   2 C2            -1.2668     2.0761     0.0193 C.ar    
   3 C3            -1.2881     3.4940     0.0272 C.ar    
   4 C4            -0.0714     4.1618     0.0251 C.ar    
   5 C5             1.1191     3.4255     0.0154 C.ar    
   6 N6             1.1171     2.1059     0.0027 N.ar    
   7 C7             0.0021    -0.0041     0.0020 C.ar    
   8 C8            -1.1727    -0.6951     0.0090 C.ar    
   9 C9            -2.3963    -0.0304     0.0237 C.ar    
  10 C10           -2.4530     1.3316     0.0204 C.ar    
  11 C11           -2.5679     4.2386     0.0368 C.ar    
  12 C12           -2.7787     5.2560     0.9679 C.ar    
  13 C13           -3.9723     5.9469     0.9725 C.ar    
  14 C14           -3.5648     3.9290    -0.8888 C.ar    
  15 C15            2.4146     4.1463     0.0066 C.2     
  16 N16            3.5708     3.4541    -0.0142 N.am    
  17 O17            2.4339     5.3611     0.0180 O.2     
  18 C18           -1.1469    -2.2019     0.0132 C.3     
  19 C19           -4.9617     5.6317     0.0546 C.ar    
  20 C20           -4.7549     4.6257    -0.8760 C.ar    
  21 F21           -6.1296     6.3108     0.0637 F       
  22 N22           -0.8802    -2.6819     1.3714 N.am    
  23 C23           -1.8540    -2.9376     2.2538 C.2     
  24 C24           -1.2378    -3.4138     3.5511 C.3     
  25 C25            0.2770    -3.3887     3.2625 C.3     
  26 C26            0.3572    -2.9064     1.8305 C.2     
  27 F27            1.1793    -0.6668    -0.0127 F       
  28 O28            1.3800    -2.7460     1.1998 O.2     
  29 O29           -3.0413    -2.8078     2.0464 O.2     
  30 H30           -0.0434     5.2414     0.0305 H       
  31 H31           -3.3127    -0.6017     0.0377 H       
  32 H32           -3.4088     1.8345     0.0280 H       
  33 H33           -2.0086     5.5019     1.6840 H       
  34 H34           -4.1364     6.7347     1.6928 H       
  35 H35           -3.4046     3.1452    -1.6144 H       
  36 H36            3.5553     2.4842    -0.0233 H       
  37 H37            4.4184     3.9257    -0.0200 H       
  38 H38           -2.1110    -2.5827    -0.3239 H       
  39 H39           -0.3627    -2.5537    -0.6571 H       
  40 H40           -5.5289     4.3837    -1.5893 H       
  41 H41           -1.4845    -2.7328     4.3657 H       
  42 H42           -1.5674    -4.4265     3.7834 H       
  43 H43            0.7839    -2.6952     3.9334 H       
  44 H44            0.7010    -4.3889     3.3511 H       
@<TRIPOS>BOND
   1    1    7 ar
   2    1    6 ar
   3    1    2 ar
   4    2    3 ar
   5    2   10 ar
   6    3   11 1
   7    3    4 ar
   8    4    5 ar
   9    4   30 1
  10    5   15 1
  11    5    6 ar
  12    7   27 1
  13    7    8 ar
  14    8    9 ar
  15    8   18 1
  16    9   10 ar
  17    9   31 1
  18   10   32 1
  19   11   12 ar
  20   11   14 ar
  21   12   13 ar
  22   12   33 1
  23   13   19 ar
  24   13   34 1
  25   14   20 ar
  26   14   35 1
  27   15   16 am
  28   15   17 2
  29   16   36 1
  30   16   37 1
  31   18   22 1
  32   18   38 1
  33   18   39 1
  34   19   20 ar
  35   19   21 1
  36   20   40 1
  37   22   23 am
  38   22   26 am
  39   23   24 1
  40   23   29 2
  41   24   25 1
  42   24   41 1
  43   24   42 1
  44   25   26 1
  45   25   43 1
  46   25   44 1
  47   26   28 2

#	End of record

