#	Name: ASD01940351
#	Creating user name:	WinNT
#	Creation time:	15. 06. 2019 20:12

#	Modifying user name:	WinNT
#	Modification time:	15. 06. 2019 20:12

#	Program:	/corina/corina34_cracker 3.40 0067  02.08.2006

@<TRIPOS>MOLECULE
ASD01940351
  43   46    0    0    0
SMALL
NO_CHARGES


@<TRIPOS>ATOM
   1 C1            -0.3057     1.7145    -0.3074 C.3     
   2 C2            -0.3893     0.1877    -0.3590 C.3     
   3 C3             0.9719     0.8756    -0.2382 C.3     
   4 S4            -0.6286     2.6235    -1.8437 S.o2    
   5 O5             0.3466     2.3039    -2.8265 O.2     
   6 O6            -2.0153     2.6022    -2.1535 O.2     
   7 N7            -0.3199     4.2048    -1.4609 N.am    
   8 C8             0.9596     4.5856    -1.0352 C.ar    
   9 C9             1.1069     5.5761    -0.0649 C.ar    
  10 C10            2.3770     5.9495     0.3531 C.ar    
  11 C11            3.4935     5.3373    -0.1946 C.ar    
  12 C12            3.3446     4.3544    -1.1576 C.ar    
  13 C13            2.0814     3.9743    -1.5738 C.ar    
  14 N14           -0.0241     6.1934     0.4865 N.pl3   
  15 C15            0.1014     7.4163     1.1507 C.ar    
  16 C16            0.3224     8.5832     0.4237 C.ar    
  17 C17            0.4464     9.7914     1.0788 C.ar    
  18 C18            0.3503     9.8421     2.4689 C.ar    
  19 C19            0.1291     8.6728     3.1936 C.ar    
  20 C20           -0.0001     7.4675     2.5353 C.ar    
  21 N21            0.7566    13.2765     3.6248 N.pl3   
  22 N22            0.6932    12.3110     2.6121 N.2     
  23 C23            0.4838    11.1400     3.1758 C.2     
  24 C24            0.4089    11.3367     4.5686 C.2     
  25 C25            0.5798    12.6547     4.8103 C.2     
  26 F26            0.4157     8.5324    -0.9231 F       
  27 F27            4.7294     5.7011     0.2120 F       
  28 F28            2.5246     6.9090     1.2926 F       
  29 H29           -0.6353     2.2060     0.6080 H       
  30 H30           -0.7740    -0.3253     0.5224 H       
  31 H31           -0.6384    -0.2706    -1.3161 H       
  32 H32            1.6184     0.8699    -1.1157 H       
  33 H33            1.4829     0.8152     0.7228 H       
  34 H34           -1.0248     4.8674    -1.5315 H       
  35 H35            4.2169     3.8800    -1.5822 H       
  36 H36            1.9690     3.2035    -2.3219 H       
  37 H37           -0.8940     5.7717     0.4070 H       
  38 H38            0.6182    10.6967     0.5155 H       
  39 H39            0.0548     8.7107     4.2704 H       
  40 H40           -0.1762     6.5621     3.0971 H       
  41 H41            0.9057    14.2265     3.4970 H       
  42 H42            0.2445    10.5700     5.3112 H       
  43 H43            0.5757    13.1279     5.7811 H       
@<TRIPOS>BOND
   1    1    2 1
   2    1    3 1
   3    1    4 1
   4    1   29 1
   5    2    3 1
   6    2   30 1
   7    2   31 1
   8    3   32 1
   9    3   33 1
  10    4    5 2
  11    4    6 2
  12    4    7 am
  13    7    8 1
  14    7   34 1
  15    8    9 ar
  16    8   13 ar
  17    9   10 ar
  18    9   14 1
  19   10   11 ar
  20   10   28 1
  21   11   12 ar
  22   11   27 1
  23   12   13 ar
  24   12   35 1
  25   13   36 1
  26   14   15 1
  27   14   37 1
  28   15   16 ar
  29   15   20 ar
  30   16   17 ar
  31   16   26 1
  32   17   18 ar
  33   17   38 1
  34   18   19 ar
  35   18   23 1
  36   19   20 ar
  37   19   39 1
  38   20   40 1
  39   21   22 1
  40   21   25 1
  41   21   41 1
  42   22   23 2
  43   23   24 1
  44   24   25 2
  45   24   42 1
  46   25   43 1

#	End of record

