#	Name: ASD04590609
#	Creating user name:	WinNT
#	Creation time:	15. 06. 2019 20:51

#	Modifying user name:	WinNT
#	Modification time:	15. 06. 2019 20:51

#	Program:	/corina/corina34_cracker 3.40 0067  02.08.2006

@<TRIPOS>MOLECULE
ASD04590609
  60   65    0    0    0
SMALL
NO_CHARGES


@<TRIPOS>ATOM
   1 N1            -0.0170     1.3241    -0.0111 N.ar    
   2 C2             0.0017    -0.0035    -0.0049 C.ar    
   3 N3             1.1288    -0.6959    -0.0117 N.ar    
   4 C4             2.3047    -0.0744    -0.0258 C.ar    
   5 C5             2.3193     1.3366    -0.0333 C.ar    
   6 C6             1.1058     2.0214    -0.0251 C.ar    
   7 N7             3.6008    -0.5160    -0.0356 N.pl3   
   8 C8             4.4753     0.5584    -0.0492 C.2     
   9 C9             3.7293     1.7373    -0.0484 C.2     
  10 C10            5.8821     0.6499    -0.0632 C.2     
  11 N11            6.4769     1.8577    -0.0753 N.am    
  12 C12            5.7481     3.0099    -0.0745 C.2     
  13 C13            4.4007     2.9806    -0.0611 C.2     
  14 N14           -1.2017    -0.6878     0.0098 N.pl3   
  15 C15           -2.4017     0.0138     0.1304 C.ar    
  16 C16            4.0052    -1.9241    -0.0313 C.3     
  17 N17           -2.3878     1.3211     0.3309 N.ar    
  18 N18           -3.4667     2.0064     0.4472 N.ar    
  19 C19           -4.6655     1.4512     0.3743 C.ar    
  20 C20           -4.7825     0.0762     0.1645 C.ar    
  21 C21           -3.6192    -0.6615     0.0339 C.ar    
  22 N22           -5.8081     2.2370     0.5072 N.3     
  23 C23            3.4068    -2.6419     1.1961 C.3     
  24 C24            3.4446    -2.6372    -1.2742 C.3     
  25 C25            2.5252    -3.7636    -0.7588 C.3     
  26 C26            2.1101    -3.2965     0.6584 C.3     
  27 C27           -6.6924     2.0806    -0.6547 C.3     
  28 C28           -5.4557     3.6465     0.7204 C.3     
  29 C29           -6.7243     4.4533     1.0063 C.3     
  30 C30           -7.6849     4.3216    -0.1788 C.3     
  31 C31           -7.9979     2.8407    -0.4099 C.3     
  32 O32            6.5602    -0.3649    -0.0638 O.2     
  33 N33           -8.9287     5.0462     0.1146 N.3     
  34 H34            1.0831     3.1012    -0.0308 H       
  35 H35            7.4455     1.9092    -0.0845 H       
  36 H36            6.2587     3.9615    -0.0841 H       
  37 H37            3.8374     3.9020    -0.0603 H       
  38 H38           -1.2106    -1.6549    -0.0637 H       
  39 H39            5.0924    -2.0000    -0.0158 H       
  40 H40           -5.7514    -0.3968     0.1023 H       
  41 H41           -3.6524    -1.7284    -0.1302 H       
  42 H42            4.0938    -3.4035     1.5651 H       
  43 H43            3.1740    -1.9237     1.9822 H       
  44 H44            2.8717    -1.9357    -1.8806 H       
  45 H45            4.2598    -3.0600    -1.8615 H       
  46 H46            1.6489    -3.8639    -1.3993 H       
  47 H47            3.0698    -4.7063    -0.7055 H       
  48 H48            1.8216    -4.1468     1.2764 H       
  49 H49            1.3028    -2.5661     0.6034 H       
  50 H50           -6.2005     2.4799    -1.5417 H       
  51 H51           -6.9104     1.0234    -0.8055 H       
  52 H52           -4.7756     3.7265     1.5684 H       
  53 H53           -4.9696     4.0384    -0.1731 H       
  54 H54           -7.2035     4.0708     1.9075 H       
  55 H55           -6.4641     5.5021     1.1490 H       
  56 H56           -7.2208     4.7396    -1.0721 H       
  57 H57           -8.6476     2.7374    -1.2790 H       
  58 H58           -8.4971     2.4328     0.4690 H       
  59 H59           -9.5791     4.9739    -0.6534 H       
  60 H60           -9.3448     4.7175     0.9730 H       
@<TRIPOS>BOND
   1    1    2 ar
   2    1    6 ar
   3    2    3 ar
   4    2   14 1
   5    3    4 ar
   6    4    5 ar
   7    4    7 1
   8    5    6 ar
   9    5    9 1
  10    6   34 1
  11    7    8 1
  12    7   16 1
  13    8    9 2
  14    8   10 1
  15    9   13 1
  16   10   11 am
  17   10   32 2
  18   11   12 1
  19   11   35 1
  20   12   13 2
  21   12   36 1
  22   13   37 1
  23   14   15 1
  24   14   38 1
  25   15   17 ar
  26   15   21 ar
  27   16   24 1
  28   16   23 1
  29   16   39 1
  30   17   18 ar
  31   18   19 ar
  32   19   20 ar
  33   19   22 1
  34   20   21 ar
  35   20   40 1
  36   21   41 1
  37   22   28 1
  38   22   27 1
  39   23   26 1
  40   23   42 1
  41   23   43 1
  42   24   25 1
  43   24   44 1
  44   24   45 1
  45   25   26 1
  46   25   46 1
  47   25   47 1
  48   26   48 1
  49   26   49 1
  50   27   31 1
  51   27   50 1
  52   27   51 1
  53   28   29 1
  54   28   52 1
  55   28   53 1
  56   29   30 1
  57   29   54 1
  58   29   55 1
  59   30   31 1
  60   30   33 1
  61   30   56 1
  62   31   57 1
  63   31   58 1
  64   33   59 1
  65   33   60 1

#	End of record

