#	Name: ASD04230076
#	Creating user name:	WinNT
#	Creation time:	15. 06. 2019 20:48

#	Modifying user name:	WinNT
#	Modification time:	15. 06. 2019 20:48

#	Program:	/corina/corina34_cracker 3.40 0067  02.08.2006

@<TRIPOS>MOLECULE
ASD04230076
  55   58    0    0    0
SMALL
NO_CHARGES


@<TRIPOS>ATOM
   1 C1             1.5358     4.6863     1.7197 C.ar    
   2 C2             2.5436     5.3841     2.3695 C.ar    
   3 C3             3.8002     4.8590     2.4683 C.ar    
   4 C4             4.0822     3.6081     1.9007 C.ar    
   5 C5             3.0562     2.8818     1.2694 C.ar    
   6 C6             1.7830     3.4397     1.1726 C.ar    
   7 C7             5.3931     3.0678     1.9624 C.2     
   8 C8             5.6627     1.9284     1.2160 C.2     
   9 C9             4.5671     1.3877     0.3908 C.2     
  10 O10            3.2977     1.6422     0.7797 O.3     
  11 C11            6.9877     1.2871     1.2470 C.2     
  12 N12            7.2188     0.1818     0.5112 N.am    
  13 O13            7.8738     1.7548     1.9366 O.2     
  14 C14            8.5058    -0.3623     0.4518 C.ar    
  15 C15            8.6753    -1.7390     0.3696 C.ar    
  16 C16            9.9457    -2.2803     0.3113 C.ar    
  17 C17           11.0532    -1.4566     0.3343 C.ar    
  18 C18           10.8927    -0.0742     0.4162 C.ar    
  19 C19            9.6134     0.4724     0.4692 C.ar    
  20 C20           12.0820     0.8125     0.4411 C.ar    
  21 O21            4.7981     0.7334    -0.6088 O.2     
  22 C22           11.9211     2.1943     0.5229 C.ar    
  23 C23           13.0286     3.0161     0.5458 C.ar    
  24 C24           14.3025     2.4680     0.4874 C.ar    
  25 C25           14.4660     1.0915     0.4054 C.ar    
  26 C26           13.3627     0.2647     0.3884 C.ar    
  27 C27           15.8508     0.5004     0.3417 C.3     
  28 O28           15.3917     3.2800     0.5102 O.3     
  29 C29           15.1510     4.6860     0.5951 C.3     
  30 C30           16.4867     5.4321     0.6088 C.3     
  31 O31            0.7868     2.7610     0.5435 O.3     
  32 C32           -0.4923     3.3951     0.4828 C.3     
  33 F33           -0.3779     4.6116    -0.1984 F       
  34 F34           -1.3928     2.5649    -0.1934 F       
  35 F35           -0.9587     3.6295     1.7808 F       
  36 H36            0.5487     5.1179     1.6441 H       
  37 H37            2.3325     6.3515     2.8008 H       
  38 H38            4.5760     5.4066     2.9828 H       
  39 H39            6.1573     3.5287     2.5707 H       
  40 H40            6.4924    -0.2364     0.0228 H       
  41 H41            7.8121    -2.3878     0.3516 H       
  42 H42           10.0723    -3.3510     0.2478 H       
  43 H43           12.0443    -1.8833     0.2893 H       
  44 H44            9.4840     1.5428     0.5324 H       
  45 H45           10.9301     2.6213     0.5680 H       
  46 H46           12.9044     4.0871     0.6089 H       
  47 H47           13.4905    -0.8059     0.3246 H       
  48 H48           16.2069     0.2994     1.3521 H       
  49 H49           15.8230    -0.4299    -0.2256 H       
  50 H50           16.5241     1.2043    -0.1475 H       
  51 H51           14.5644     5.0068    -0.2657 H       
  52 H52           14.6025     4.9060     1.5110 H       
  53 H53           17.0352     5.2121    -0.3070 H       
  54 H54           16.3031     6.5046     0.6736 H       
  55 H55           17.0733     5.1113     1.4697 H       
@<TRIPOS>BOND
   1    1    2 ar
   2    1    6 ar
   3    1   36 1
   4    2    3 ar
   5    2   37 1
   6    3    4 ar
   7    3   38 1
   8    4    5 ar
   9    4    7 1
  10    5    6 ar
  11    5   10 1
  12    6   31 1
  13    7    8 2
  14    7   39 1
  15    8    9 1
  16    8   11 1
  17    9   10 1
  18    9   21 2
  19   11   12 am
  20   11   13 2
  21   12   14 1
  22   12   40 1
  23   14   15 ar
  24   14   19 ar
  25   15   16 ar
  26   15   41 1
  27   16   17 ar
  28   16   42 1
  29   17   18 ar
  30   17   43 1
  31   18   19 ar
  32   18   20 1
  33   19   44 1
  34   20   22 ar
  35   20   26 ar
  36   22   23 ar
  37   22   45 1
  38   23   24 ar
  39   23   46 1
  40   24   25 ar
  41   24   28 1
  42   25   26 ar
  43   25   27 1
  44   26   47 1
  45   27   48 1
  46   27   49 1
  47   27   50 1
  48   28   29 1
  49   29   30 1
  50   29   51 1
  51   29   52 1
  52   30   53 1
  53   30   54 1
  54   30   55 1
  55   31   32 1
  56   32   33 1
  57   32   34 1
  58   32   35 1

#	End of record

