#	Name: ASD03330507
#	Creating user name:	WinNT
#	Creation time:	15. 06. 2019 20:37

#	Modifying user name:	WinNT
#	Modification time:	15. 06. 2019 20:37

#	Program:	/corina/corina34_cracker 3.40 0067  02.08.2006

@<TRIPOS>MOLECULE
ASD03330507
  61   63    0    0    0
SMALL
NO_CHARGES


@<TRIPOS>ATOM
   1 C1             0.1619    -0.4305     1.0245 C.3     
   2 N2             0.1754    -1.8157     0.5335 N.3     
   3 C3             0.6161    -1.8775    -0.8718 C.3     
   4 C4             1.8911    -1.0842    -0.9955 C.2     
   5 N5             2.3273    -0.2043    -0.0563 N.pl3   
   6 C6             1.6003     0.0778     1.1852 C.3     
   7 C7             2.8032    -1.0837    -1.9973 C.2     
   8 N8             3.7836    -0.2053    -1.6521 N.2     
   9 C9             3.4952     0.3167    -0.4913 C.2     
  10 C10            4.3288     1.3345     0.2437 C.3     
  11 C11            2.7449    -1.8861    -3.2315 C.2     
  12 O12            1.8098    -2.6398    -3.4232 O.2     
  13 C13            3.6697    -2.5827    -5.3755 C.3     
  14 N14            3.7277    -1.7848    -4.1482 N.am    
  15 C15            2.8217    -1.8525    -6.4189 C.3     
  16 C16            5.5362     0.6584     0.8405 C.ar    
  17 O17            4.7534     2.3501    -0.6676 O.3     
  18 C18           -1.1408    -2.4463     0.7007 C.3     
  19 C19            3.3726    -0.4403    -6.6263 C.3     
  20 C20            5.5065     0.2225     2.1520 C.ar    
  21 C21            6.6140    -0.3977     2.6994 C.ar    
  22 C22            7.7510    -0.5823     1.9353 C.ar    
  23 C23            7.7804    -0.1472     0.6236 C.ar    
  24 C24            6.6714     0.4691     0.0748 C.ar    
  25 C25            2.8704    -2.6185    -7.7424 C.3     
  26 C26            1.3739    -1.7686    -5.9313 C.3     
  27 C27            5.0640    -2.7819    -5.9115 C.2     
  28 N28            5.3417    -3.8484    -6.6873 N.am    
  29 O29            5.9362    -1.9825    -5.6447 O.2     
  30 C30            6.7194    -4.1044    -7.1146 C.3     
  31 H31           -0.3682     0.2014     0.3118 H       
  32 H32           -0.3457    -0.3926     1.9883 H       
  33 H33            0.7982    -2.9141    -1.1555 H       
  34 H34           -0.1496    -1.4473    -1.5173 H       
  35 H35            1.5922     1.1519     1.3706 H       
  36 H36            2.0810    -0.4360     2.0177 H       
  37 H37            3.7346     1.7851     1.0387 H       
  38 H38            3.2222    -3.5524    -5.1576 H       
  39 H39            4.4734    -1.1836    -3.9953 H       
  40 H40            5.2883     2.0203    -1.4026 H       
  41 H41           -1.8983    -1.8451     0.1978 H       
  42 H42           -1.1227    -3.4457     0.2660 H       
  43 H43           -1.3780    -2.5161     1.7623 H       
  44 H44            4.4041    -0.5001    -6.9737 H       
  45 H45            2.7685     0.0798    -7.3696 H       
  46 H46            3.3379     0.1054    -5.6834 H       
  47 H47            4.6181     0.3667     2.7490 H       
  48 H48            6.5910    -0.7376     3.7243 H       
  49 H49            8.6165    -1.0662     2.3633 H       
  50 H50            8.6689    -0.2911     0.0267 H       
  51 H51            6.6943     0.8090    -0.9501 H       
  52 H52            2.4440    -3.6119    -7.6032 H       
  53 H53            2.2965    -2.0790    -8.4958 H       
  54 H54            3.9056    -2.7103    -8.0711 H       
  55 H55            1.3391    -1.2229    -4.9884 H       
  56 H56            0.7697    -1.2484    -6.6746 H       
  57 H57            0.9813    -2.7746    -5.7835 H       
  58 H58            4.6294    -4.4464    -6.9628 H       
  59 H59            7.0840    -3.2557    -7.6933 H       
  60 H60            7.3516    -4.2448    -6.2379 H       
  61 H61            6.7476    -5.0032    -7.7306 H       
@<TRIPOS>BOND
   1    1    2 1
   2    1    6 1
   3    1   31 1
   4    1   32 1
   5    2    3 1
   6    2   18 1
   7    3    4 1
   8    3   33 1
   9    3   34 1
  10    4    5 1
  11    4    7 2
  12    5    6 1
  13    5    9 1
  14    6   35 1
  15    6   36 1
  16    7    8 1
  17    7   11 1
  18    8    9 2
  19    9   10 1
  20   10   16 1
  21   10   17 1
  22   10   37 1
  23   11   12 2
  24   11   14 am
  25   13   14 1
  26   13   15 1
  27   13   27 1
  28   13   38 1
  29   14   39 1
  30   15   19 1
  31   15   25 1
  32   15   26 1
  33   16   20 ar
  34   16   24 ar
  35   17   40 1
  36   18   41 1
  37   18   42 1
  38   18   43 1
  39   19   44 1
  40   19   45 1
  41   19   46 1
  42   20   21 ar
  43   20   47 1
  44   21   22 ar
  45   21   48 1
  46   22   23 ar
  47   22   49 1
  48   23   24 ar
  49   23   50 1
  50   24   51 1
  51   25   52 1
  52   25   53 1
  53   25   54 1
  54   26   55 1
  55   26   56 1
  56   26   57 1
  57   27   28 am
  58   27   29 2
  59   28   30 1
  60   28   58 1
  61   30   59 1
  62   30   60 1
  63   30   61 1

#	End of record

