#	Name: ASD02500103
#	Creating user name:	WinNT
#	Creation time:	15. 06. 2019 20:22

#	Modifying user name:	WinNT
#	Modification time:	15. 06. 2019 20:22

#	Program:	/corina/corina34_cracker 3.40 0067  02.08.2006

@<TRIPOS>MOLECULE
ASD02500103
  61   65    0    0    0
SMALL
NO_CHARGES


@<TRIPOS>ATOM
   1 N1            -3.6038     5.5551     0.1112 N.ar    
   2 C2            -4.7308     6.1894    -0.1028 C.ar    
   3 C3            -5.8592     5.9647     0.6831 C.ar    
   4 C4            -5.8079     5.0630     1.7076 C.ar    
   5 C5            -4.5961     4.3834     1.9342 C.ar    
   6 C6            -4.4675     3.4430     2.9686 C.ar    
   7 C7            -3.2781     2.8069     3.1557 C.ar    
   8 C8            -2.1859     3.0772     2.3342 C.ar    
   9 C9            -2.2754     3.9829     1.3221 C.ar    
  10 C10           -3.4864     4.6601     1.0973 C.ar    
  11 S11           -0.8782     4.3061     0.2984 S.o2    
  12 O12           -0.7281     5.7186     0.2586 O.2     
  13 O13            0.1501     3.4273     0.7338 O.2     
  14 N14           -1.2768     3.8346    -1.2382 N.am    
  15 C15           -1.4713     2.4863    -1.5241 C.ar    
  16 C16           -1.1252     1.9839    -2.7777 C.ar    
  17 C17           -1.3170     0.6499    -3.0627 C.ar    
  18 C18           -1.8587    -0.1994    -2.0927 C.ar    
  19 C19           -2.2037     0.3083    -0.8374 C.ar    
  20 C20           -2.0053     1.6416    -0.5565 C.ar    
  21 F21           -0.6020     2.8059    -3.7136 F       
  22 C22           -2.0660    -1.6285    -2.3943 C.2     
  23 O23           -2.4830    -1.9653    -3.4857 O.2     
  24 N24           -1.7930    -2.5609    -1.4601 N.am    
  25 C25           -1.9053    -3.9945    -1.7690 C.3     
  26 C26           -0.6031    -4.6858    -1.3512 C.3     
  27 N27           -0.3164    -4.3741     0.0554 N.3     
  28 C28           -0.0938    -2.9348     0.2475 C.3     
  29 C29           -1.3692    -2.1718    -0.1065 C.3     
  30 C30            0.6883    -6.5050     0.6385 C.ar    
  31 C31            0.7745    -5.1170     0.5215 C.ar    
  32 C32            1.9597    -4.4840     0.8743 C.ar    
  33 C33            3.0140    -5.2628     1.3308 C.ar    
  34 C34            2.8554    -6.6309     1.4200 C.ar    
  35 N35            1.7175    -7.2069     1.0779 N.ar    
  36 O36           -0.4648    -7.1386     0.3032 O.3     
  37 C37           -0.4889    -8.5603     0.4455 C.3     
  38 H38           -4.7861     6.9053    -0.9094 H       
  39 H39           -6.7735     6.5034     0.4825 H       
  40 H40           -6.6729     4.8768     2.3269 H       
  41 H41           -5.3069     3.2255     3.6124 H       
  42 H42           -3.1801     2.0835     3.9516 H       
  43 H43           -1.2530     2.5600     2.5033 H       
  44 H44           -1.3746     4.4981    -1.9390 H       
  45 H45           -1.0496     0.2606    -4.0340 H       
  46 H46           -2.6225    -0.3455    -0.0867 H       
  47 H47           -2.2683     2.0329     0.4152 H       
  48 H48           -2.7412    -4.4237    -1.2167 H       
  49 H49           -2.0632    -4.1271    -2.8393 H       
  50 H50           -0.7093    -5.7641    -1.4705 H       
  51 H51            0.2151    -4.3291    -1.9769 H       
  52 H52            0.1694    -2.7432     1.2878 H       
  53 H53            0.7172    -2.6025    -0.4004 H       
  54 H54           -1.1729    -1.1000    -0.0782 H       
  55 H55           -2.1527    -2.4224     0.6087 H       
  56 H56            2.0585    -3.4115     0.7949 H       
  57 H57            3.9495    -4.8028     1.6131 H       
  58 H58            3.6742    -7.2394     1.7745 H       
  59 H59            0.2822    -9.0017    -0.1860 H       
  60 H60           -0.3015    -8.8245     1.4862 H       
  61 H61           -1.4657    -8.9390     0.1447 H       
@<TRIPOS>BOND
   1    1    2 ar
   2    1   10 ar
   3    2    3 ar
   4    2   38 1
   5    3    4 ar
   6    3   39 1
   7    4    5 ar
   8    4   40 1
   9    5    6 ar
  10    5   10 ar
  11    6    7 ar
  12    6   41 1
  13    7    8 ar
  14    7   42 1
  15    8    9 ar
  16    8   43 1
  17    9   10 ar
  18    9   11 1
  19   11   12 2
  20   11   13 2
  21   11   14 am
  22   14   15 1
  23   14   44 1
  24   15   16 ar
  25   15   20 ar
  26   16   17 ar
  27   16   21 1
  28   17   18 ar
  29   17   45 1
  30   18   19 ar
  31   18   22 1
  32   19   20 ar
  33   19   46 1
  34   20   47 1
  35   22   23 2
  36   22   24 am
  37   24   25 1
  38   24   29 1
  39   25   26 1
  40   25   48 1
  41   25   49 1
  42   26   27 1
  43   26   50 1
  44   26   51 1
  45   27   28 1
  46   27   31 1
  47   28   29 1
  48   28   52 1
  49   28   53 1
  50   29   54 1
  51   29   55 1
  52   30   31 ar
  53   30   35 ar
  54   30   36 1
  55   31   32 ar
  56   32   33 ar
  57   32   56 1
  58   33   34 ar
  59   33   57 1
  60   34   35 ar
  61   34   58 1
  62   36   37 1
  63   37   59 1
  64   37   60 1
  65   37   61 1

#	End of record

