#	Name: ASD01410254
#	Creating user name:	WinNT
#	Creation time:	15. 06. 2019 19:17

#	Modifying user name:	WinNT
#	Modification time:	15. 06. 2019 19:17

#	Program:	/corina/corina34_cracker 3.40 0067  02.08.2006

@<TRIPOS>MOLECULE
ASD01410254
  28   29    0    0    0
SMALL
NO_CHARGES


@<TRIPOS>ATOM
   1 C1            -0.3318     1.5092    -0.6952 C.ar    
   2 C2            -0.0856     0.1609    -0.5310 C.ar    
   3 C3            -1.0471    -0.6647     0.0327 C.ar    
   4 C4            -2.2596    -0.1472     0.4353 C.ar    
   5 C5            -2.5237     1.2161     0.2756 C.ar    
   6 C6            -1.5470     2.0498    -0.2896 C.ar    
   7 N7            -1.7972     3.4072    -0.4538 N.pl3   
   8 Cl8            0.8797     2.5323    -1.4020 Cl      
   9 C9            -3.8185     1.7756     0.7036 C.2     
  10 N10           -4.7963     0.9559     1.1379 N.am    
  11 O11           -4.0045     2.9768     0.6649 O.2     
  12 C12           -7.1851     0.8211     1.4645 C.ar    
  13 C13           -5.9833     1.4921     1.6483 C.ar    
  14 C14           -5.9616     2.6962     2.3401 C.ar    
  15 C15           -7.1357     3.2234     2.8436 C.ar    
  16 C16           -8.3328     2.5512     2.6589 C.ar    
  17 C17           -8.3560     1.3518     1.9700 C.ar    
  18 Cl18          -0.7221    -2.3583     0.2316 Cl      
  19 Cl19          -9.8061     3.2149     3.2933 Cl      
  20 Cl20          -7.1102     4.7283     3.7085 Cl      
  21 H21            0.8614    -0.2537    -0.8438 H       
  22 H22           -3.0049    -0.7946     0.8733 H       
  23 H23           -2.7105     3.7279    -0.5166 H       
  24 H24           -1.0585     4.0337    -0.5056 H       
  25 H25           -4.6769    -0.0059     1.0966 H       
  26 H26           -7.2049    -0.1132     0.9230 H       
  27 H27           -5.0282     3.2199     2.4847 H       
  28 H28           -9.2906     0.8297     1.8273 H       
@<TRIPOS>BOND
   1    1    2 ar
   2    1    8 1
   3    1    6 ar
   4    2    3 ar
   5    2   21 1
   6    3    4 ar
   7    3   18 1
   8    4    5 ar
   9    4   22 1
  10    5    6 ar
  11    5    9 1
  12    6    7 1
  13    7   23 1
  14    7   24 1
  15    9   10 am
  16    9   11 2
  17   10   13 1
  18   10   25 1
  19   12   13 ar
  20   12   17 ar
  21   12   26 1
  22   13   14 ar
  23   14   15 ar
  24   14   27 1
  25   15   16 ar
  26   15   20 1
  27   16   17 ar
  28   16   19 1
  29   17   28 1

#	End of record

