#	Name: ASD02560258
#	Creating user name:	WinNT
#	Creation time:	15. 06. 2019 20:24

#	Modifying user name:	WinNT
#	Modification time:	15. 06. 2019 20:24

#	Program:	/corina/corina34_cracker 3.40 0067  02.08.2006

@<TRIPOS>MOLECULE
ASD02560258
  31   33    0    0    0
SMALL
NO_CHARGES


@<TRIPOS>ATOM
   1 C1             0.1449     1.0064     0.3156 C.2     
   2 O2             0.3571    -0.3068     0.1188 O.3     
   3 C3            -0.7505    -0.9814     0.4743 C.2     
   4 N4            -1.6424    -0.1159     0.8863 N.2     
   5 N5            -1.0661     1.1590     0.7894 N.2     
   6 N6            -0.9192    -2.3565     0.4145 N.pl3   
   7 N7             1.0541     2.0232     0.0656 N.pl3   
   8 C8             0.6656     3.3586     0.2068 C.ar    
   9 C9             1.5996     4.3204     0.5704 C.ar    
  10 C10            1.2130     5.6389     0.7092 C.ar    
  11 C11           -0.1037     6.0023     0.4864 C.ar    
  12 C12           -1.0364     5.0462     0.1245 C.ar    
  13 C13           -0.6541     3.7273    -0.0218 C.ar    
  14 C14           -2.1666    -2.9207     0.6973 C.ar    
  15 C15           -3.3296    -2.2157     0.4140 C.ar    
  16 C16           -4.5605    -2.7755     0.6945 C.ar    
  17 C17           -4.6361    -4.0375     1.2573 C.ar    
  18 C18           -3.4791    -4.7420     1.5410 C.ar    
  19 C19           -2.2457    -4.1897     1.2569 C.ar    
  20 Cl20          -6.1851    -4.7381     1.6086 Cl      
  21 Cl21          -0.5862     7.6607     0.6618 Cl      
  22 H22           -0.1716    -2.9269     0.1763 H       
  23 H23            1.9597     1.8078    -0.2072 H       
  24 H24            2.6272     4.0373     0.7447 H       
  25 H25            1.9386     6.3870     0.9922 H       
  26 H26           -2.0634     5.3326    -0.0480 H       
  27 H27           -1.3825     2.9815    -0.3041 H       
  28 H28           -3.2712    -1.2306    -0.0248 H       
  29 H29           -5.4649    -2.2277     0.4748 H       
  30 H30           -3.5411    -5.7264     1.9808 H       
  31 H31           -1.3431    -4.7398     1.4785 H       
@<TRIPOS>BOND
   1    1    2 1
   2    1    7 1
   3    1    5 2
   4    2    3 1
   5    3    4 2
   6    3    6 1
   7    4    5 1
   8    6   14 1
   9    6   22 1
  10    7    8 1
  11    7   23 1
  12    8    9 ar
  13    8   13 ar
  14    9   10 ar
  15    9   24 1
  16   10   11 ar
  17   10   25 1
  18   11   12 ar
  19   11   21 1
  20   12   13 ar
  21   12   26 1
  22   13   27 1
  23   14   15 ar
  24   14   19 ar
  25   15   16 ar
  26   15   28 1
  27   16   17 ar
  28   16   29 1
  29   17   18 ar
  30   17   20 1
  31   18   19 ar
  32   18   30 1
  33   19   31 1

#	End of record

