#	Name: ASD03110031
#	Creating user name:	WinNT
#	Creation time:	15. 06. 2019 20:33

#	Modifying user name:	WinNT
#	Modification time:	15. 06. 2019 20:33

#	Program:	/corina/corina34_cracker 3.40 0067  02.08.2006

@<TRIPOS>MOLECULE
ASD03110031
  43   46    0    0    0
SMALL
NO_CHARGES


@<TRIPOS>ATOM
   1 C1            -0.0167     1.3837     0.0096 C.ar    
   2 C2             0.0021    -0.0041     0.0020 C.ar    
   3 C3             1.2033    -0.6765    -0.0130 C.ar    
   4 C4             2.4013     0.0355    -0.0206 C.ar    
   5 C5             2.3914     1.4362    -0.0130 C.ar    
   6 C6             1.1424     2.0967     0.0024 C.ar    
   7 S7             4.0773    -0.5072    -0.0405 S.3     
   8 C8             4.6286     1.1626    -0.0371 C.2     
   9 N9             3.6194     1.9666    -0.0226 N.2     
  10 C10            6.0454     1.5848    -0.0487 C.ar    
  11 C11            6.3691     2.9434    -0.0448 C.ar    
  12 C12            7.0599     0.6249    -0.0579 C.ar    
  13 C13            8.3791     1.0177    -0.0683 C.ar    
  14 C14            8.7033     2.3768    -0.0701 C.ar    
  15 C15            7.6882     3.3368    -0.0561 C.ar    
  16 C16           10.1190     2.7986    -0.0813 C.2     
  17 O17           11.0024     1.9629    -0.0889 O.2     
  18 N18           10.4315     4.1097    -0.0830 N.am    
  19 N19           11.7741     4.5097    -0.0936 N.2     
  20 C20           12.0751     5.7727    -0.0953 C.2     
  21 C21           13.4873     6.1935    -0.1064 C.ar    
  22 C22           14.5080     5.2335    -0.1152 C.ar    
  23 C23           13.8150     7.5513    -0.1141 C.ar    
  24 C24           15.1429     7.9389    -0.1245 C.ar    
  25 C25           16.1493     6.9818    -0.1278 C.ar    
  26 C26           15.8329     5.6366    -0.1256 C.ar    
  27 O27           14.1986     3.9103    -0.1131 O.3     
  28 O28           15.4636     9.2604    -0.1319 O.3     
  29 H29           -0.9630     1.9042     0.0169 H       
  30 H30           -0.9259    -0.5566     0.0082 H       
  31 H31            1.2173    -1.7564    -0.0186 H       
  32 H32            1.1074     3.1761     0.0082 H       
  33 H33            5.5844     3.6854    -0.0332 H       
  34 H34            6.8093    -0.4256    -0.0565 H       
  35 H35            9.1636     0.2754    -0.0746 H       
  36 H36            7.9384     4.3874    -0.0575 H       
  37 H37            9.7268     4.7762    -0.0769 H       
  38 H38           11.2905     6.5148    -0.0885 H       
  39 H39           13.0335     8.2968    -0.1122 H       
  40 H40           17.1842     7.2904    -0.1363 H       
  41 H41           16.6208     4.8980    -0.1279 H       
  42 H42           14.1017     3.5276    -0.9959 H       
  43 H43           15.5623     9.6461     0.7493 H       
@<TRIPOS>BOND
   1    1    2 ar
   2    1    6 ar
   3    1   29 1
   4    2    3 ar
   5    2   30 1
   6    3    4 ar
   7    3   31 1
   8    4    5 ar
   9    4    7 1
  10    5    6 ar
  11    5    9 1
  12    6   32 1
  13    7    8 1
  14    8    9 2
  15    8   10 1
  16   10   11 ar
  17   10   12 ar
  18   11   15 ar
  19   11   33 1
  20   12   13 ar
  21   12   34 1
  22   13   14 ar
  23   13   35 1
  24   14   15 ar
  25   14   16 1
  26   15   36 1
  27   16   17 2
  28   16   18 am
  29   18   19 1
  30   18   37 1
  31   19   20 2
  32   20   21 1
  33   20   38 1
  34   21   22 ar
  35   21   23 ar
  36   22   27 1
  37   22   26 ar
  38   23   24 ar
  39   23   39 1
  40   24   25 ar
  41   24   28 1
  42   25   26 ar
  43   25   40 1
  44   26   41 1
  45   27   42 1
  46   28   43 1

#	End of record

