#	Name: ASD03240407
#	Creating user name:	WinNT
#	Creation time:	15. 06. 2019 20:34

#	Modifying user name:	WinNT
#	Modification time:	15. 06. 2019 20:34

#	Program:	/corina/corina34_cracker 3.40 0067  02.08.2006

@<TRIPOS>MOLECULE
ASD03240407
  25   26    0    0    0
SMALL
NO_CHARGES


@<TRIPOS>ATOM
   1 C1            -0.0711     1.4800     0.0547 C.ar    
   2 C2            -0.1572     0.1010     0.0980 C.ar    
   3 C3             2.3908     2.3656    -2.2302 C.ar    
   4 C4             1.4485     2.8308    -1.3318 C.ar    
   5 C5             1.2782     2.1491     0.0014 C.3     
   6 C6             2.5474     2.9909    -3.4538 C.ar    
   7 C7             1.7600     4.0829    -3.7782 C.ar    
   8 C8             0.8179     4.5470    -2.8783 C.ar    
   9 C9             0.6630     3.9210    -1.6555 C.ar    
  10 Cl10           1.3952     3.3721     1.3210 Cl      
  11 Cl11           1.9558     4.8693    -5.3135 Cl      
  12 C12           -1.3944    -0.5132     0.1469 C.ar    
  13 C13           -2.5468     0.2524     0.1526 C.ar    
  14 C14           -2.4599     1.6325     0.1093 C.ar    
  15 C15           -1.2223     2.2454     0.0547 C.ar    
  16 Cl16          -4.1011    -0.5183     0.2135 Cl      
  17 Cl17           3.7308     2.4076    -4.5820 Cl      
  18 H18            0.7424    -0.4966     0.0931 H       
  19 H19            3.0076     1.5167    -1.9747 H       
  20 H20            2.0602     1.4006     0.1293 H       
  21 H21            0.2037     5.3988    -3.1306 H       
  22 H22           -0.0726     4.2838    -0.9528 H       
  23 H23           -1.4616    -1.5906     0.1803 H       
  24 H24           -3.3591     2.2307     0.1138 H       
  25 H25           -1.1543     3.3227     0.0209 H       
@<TRIPOS>BOND
   1    1    2 ar
   2    1    5 1
   3    1   15 ar
   4    2   12 ar
   5    2   18 1
   6    3    4 ar
   7    3    6 ar
   8    3   19 1
   9    4    5 1
  10    4    9 ar
  11    5   10 1
  12    5   20 1
  13    6    7 ar
  14    6   17 1
  15    7    8 ar
  16    7   11 1
  17    8    9 ar
  18    8   21 1
  19    9   22 1
  20   12   13 ar
  21   12   23 1
  22   13   14 ar
  23   13   16 1
  24   14   15 ar
  25   14   24 1
  26   15   25 1

#	End of record

