#	Name: ASD01810449
#	Creating user name:	WinNT
#	Creation time:	15. 06. 2019 19:24

#	Modifying user name:	WinNT
#	Modification time:	15. 06. 2019 19:24

#	Program:	/corina/corina34_cracker 3.40 0067  02.08.2006

@<TRIPOS>MOLECULE
ASD01810449
  70   73    0    0    0
SMALL
NO_CHARGES


@<TRIPOS>ATOM
   1 C1            -0.2012     1.3808     0.0234 C.2     
   2 C2            -0.2271    -0.0813     0.2170 C.ar    
   3 C3             0.8644    -0.8710    -0.1770 C.ar    
   4 C4             0.7974    -2.2233     0.0221 C.ar    
   5 C5            -0.3431    -2.7730     0.6055 C.ar    
   6 N6            -1.3607    -2.0044     0.9689 N.ar    
   7 C7            -1.3347    -0.6987     0.8001 C.ar    
   8 O8             0.7704     1.9103    -0.4809 O.2     
   9 N9            -1.2569     2.1292     0.4002 N.am    
  10 N10           -0.4145    -4.1409     0.8081 N.pl3   
  11 C11            0.7036    -4.9997     0.4101 C.3     
  12 C12            0.6882    -6.2788     1.2494 C.3     
  13 C13            0.5681    -5.3598    -1.0708 C.3     
  14 C14           -1.1935     3.5237     0.3097 C.ar    
  15 C15           -2.3400     4.2542     0.0196 C.ar    
  16 C16           -2.2825     5.6321    -0.0709 C.ar    
  17 C17           -1.0865     6.2921     0.1263 C.ar    
  18 C18            0.0704     5.5679     0.4185 C.ar    
  19 C19            0.0114     4.1775     0.5150 C.ar    
  20 C20           -3.6498     3.5413    -0.1976 C.3     
  21 C21            1.3530     6.2724     0.6302 C.2     
  22 O22            2.3954     5.7560     0.2779 O.2     
  23 N23            1.3662     7.4872     1.2137 N.am    
  24 C24            2.6222     8.1971     1.3079 C.3     
  25 C25            3.3376     7.8145     2.6271 C.3     
  26 C26            2.6356     8.4027     3.7781 C.3     
  27 C27            1.2063     7.9029     3.9650 C.3     
  28 C28            0.2750     8.7164     3.1005 C.3     
  29 C29            0.0969     8.0405     1.7249 C.3     
  30 C30            3.4189     8.0901     5.0270 C.ar    
  31 C31            3.9116     9.1212     5.8071 C.ar    
  32 C32            4.6294     8.8423     6.9515 C.ar    
  33 C33            4.8580     7.5156     7.3224 C.ar    
  34 C34            4.3576     6.4800     6.5308 C.ar    
  35 C35            3.6373     6.7733     5.3914 C.ar    
  36 C36            5.6027     7.2186     8.5088 C.1     
  37 N37            6.1935     6.9830     9.4501 N.1     
  38 H38            1.7371    -0.4217    -0.6274 H       
  39 H39            1.6202    -2.8588    -0.2704 H       
  40 H40           -2.1789    -0.1014     1.1115 H       
  41 H41           -2.0605     1.7009     0.7342 H       
  42 H42           -1.2049    -4.5305     1.2135 H       
  43 H43            1.6431    -4.4709     0.5709 H       
  44 H44           -0.2512    -6.8076     1.0886 H       
  45 H45            1.5202    -6.9178     0.9533 H       
  46 H46            0.7847    -6.0223     2.3044 H       
  47 H47           -0.3713    -5.8886    -1.2316 H       
  48 H48            0.5791    -4.4486    -1.6688 H       
  49 H49            1.4001    -5.9988    -1.3669 H       
  50 H50           -3.1765     6.1943    -0.2969 H       
  51 H51           -1.0456     7.3689     0.0540 H       
  52 H52            0.9024     3.6121     0.7450 H       
  53 H53           -4.1724     3.4436     0.7540 H       
  54 H54           -4.2642     4.1138    -0.8924 H       
  55 H55           -3.4602     2.5509    -0.6113 H       
  56 H56            3.2546     7.9298     0.4613 H       
  57 H57            2.4341     9.2707     1.2953 H       
  58 H58            3.3508     6.7293     2.7286 H       
  59 H59            4.3626     8.1845     2.6021 H       
  60 H60            2.6101     9.4850     3.6517 H       
  61 H61            1.1472     6.8536     3.6759 H       
  62 H62            0.9176     8.0092     5.0107 H       
  63 H63           -0.6948     8.7982     3.5913 H       
  64 H64            0.6916     9.7136     2.9591 H       
  65 H65           -0.2818     8.7737     1.0128 H       
  66 H66           -0.6290     7.2328     1.8185 H       
  67 H67            3.7340    10.1469     5.5190 H       
  68 H68            5.0140     9.6481     7.5591 H       
  69 H69            4.5308     5.4517     6.8118 H       
  70 H70            3.2461     5.9733     4.7804 H       
@<TRIPOS>BOND
   1    1    2 1
   2    1    8 2
   3    1    9 am
   4    2    3 ar
   5    2    7 ar
   6    3    4 ar
   7    3   38 1
   8    4    5 ar
   9    4   39 1
  10    5    6 ar
  11    5   10 1
  12    6    7 ar
  13    7   40 1
  14    9   14 1
  15    9   41 1
  16   10   11 1
  17   10   42 1
  18   11   12 1
  19   11   13 1
  20   11   43 1
  21   12   44 1
  22   12   45 1
  23   12   46 1
  24   13   47 1
  25   13   48 1
  26   13   49 1
  27   14   15 ar
  28   14   19 ar
  29   15   16 ar
  30   15   20 1
  31   16   17 ar
  32   16   50 1
  33   17   18 ar
  34   17   51 1
  35   18   19 ar
  36   18   21 1
  37   19   52 1
  38   20   53 1
  39   20   54 1
  40   20   55 1
  41   21   22 2
  42   21   23 am
  43   23   24 1
  44   23   29 1
  45   24   25 1
  46   24   56 1
  47   24   57 1
  48   25   26 1
  49   25   58 1
  50   25   59 1
  51   26   27 1
  52   26   30 1
  53   26   60 1
  54   27   28 1
  55   27   61 1
  56   27   62 1
  57   28   29 1
  58   28   63 1
  59   28   64 1
  60   29   65 1
  61   29   66 1
  62   30   31 ar
  63   30   35 ar
  64   31   32 ar
  65   31   67 1
  66   32   33 ar
  67   32   68 1
  68   33   34 ar
  69   33   36 1
  70   34   35 ar
  71   34   69 1
  72   35   70 1
  73   36   37 3

#	End of record

