#	Name: ASD01230796
#	Creating user name:	WinNT
#	Creation time:	15. 06. 2019 19:15

#	Modifying user name:	WinNT
#	Modification time:	15. 06. 2019 19:15

#	Program:	/corina/corina34_cracker 3.40 0067  02.08.2006

@<TRIPOS>MOLECULE
ASD01230796
  36   39    0    0    0
SMALL
NO_CHARGES


@<TRIPOS>ATOM
   1 C1            -0.0166     1.3741     0.0096 C.2     
   2 C2             0.0021    -0.0041     0.0020 C.2     
   3 C3            -1.2144    -0.7000     0.0078 C.2     
   4 C4            -2.3849    -0.0391     0.0099 C.2     
   5 N5            -2.4624     1.3313     0.0003 N.pl3   
   6 C6            -1.3176     2.0761     0.0320 C.2     
   7 C7            -3.8100     1.9044    -0.0503 C.3     
   8 C8            -3.8787     3.1902     0.7788 C.3     
   9 S9            -2.6225     4.3263     0.1109 S.o2    
  10 N10           -1.2623     3.3849     0.0816 N.am    
  11 C11            1.2493     2.1411     0.0016 C.ar    
  12 O12           -2.8871     4.6253    -1.2529 O.2     
  13 O13           -2.3220     5.3524     1.0468 O.2     
  14 C14            1.5703     2.9474    -1.0966 C.ar    
  15 C15            2.7328     3.6595    -1.1167 C.ar    
  16 C16            3.6167     3.5890    -0.0350 C.ar    
  17 C17            3.3003     2.7808     1.0718 C.ar    
  18 C18            2.1152     2.0636     1.0889 C.ar    
  19 N19            4.8169     4.1665     0.2281 N.2     
  20 C20            5.2455     3.7756     1.3928 C.2     
  21 N21            4.3506     2.9203     1.9581 N.pl3   
  22 C22            4.4774     2.2689     3.2641 C.3     
  23 H23            0.9399    -0.5395    -0.0086 H       
  24 H24           -1.2114    -1.7800     0.0101 H       
  25 H25           -3.3018    -0.6096     0.0193 H       
  26 H26           -4.0662     2.1299    -1.0855 H       
  27 H27           -4.5231     1.1820     0.3468 H       
  28 H28           -4.8688     3.6373     0.6896 H       
  29 H29           -3.6622     2.9701     1.8241 H       
  30 H30            0.8919     3.0056    -1.9350 H       
  31 H31            2.9715     4.2785    -1.9690 H       
  32 H32            1.8684     1.4419     1.9368 H       
  33 H33            6.1764     4.0846     1.8449 H       
  34 H34            4.0299     2.9016     4.0307 H       
  35 H35            3.9646     1.3073     3.2418 H       
  36 H36            5.5319     2.1132     3.4917 H       
@<TRIPOS>BOND
   1    1    2 2
   2    1   11 1
   3    1    6 1
   4    2    3 1
   5    2   23 1
   6    3    4 2
   7    3   24 1
   8    4    5 1
   9    4   25 1
  10    5    6 1
  11    5    7 1
  12    6   10 2
  13    7    8 1
  14    7   26 1
  15    7   27 1
  16    8    9 1
  17    8   28 1
  18    8   29 1
  19    9   10 am
  20    9   12 2
  21    9   13 2
  22   11   14 ar
  23   11   18 ar
  24   14   15 ar
  25   14   30 1
  26   15   16 ar
  27   15   31 1
  28   16   17 ar
  29   16   19 1
  30   17   18 ar
  31   17   21 1
  32   18   32 1
  33   19   20 2
  34   20   21 1
  35   20   33 1
  36   21   22 1
  37   22   34 1
  38   22   35 1
  39   22   36 1

#	End of record

