#	Name: ASD03330009
#	Creating user name:	WinNT
#	Creation time:	15. 06. 2019 20:36

#	Modifying user name:	WinNT
#	Modification time:	15. 06. 2019 20:36

#	Program:	/corina/corina34_cracker 3.40 0067  02.08.2006

@<TRIPOS>MOLECULE
ASD03330009
  54   57    0    0    0
SMALL
NO_CHARGES


@<TRIPOS>ATOM
   1 C1            -0.0091     1.3197     0.6449 C.ar    
   2 C2             0.0065    -0.0420     0.3664 C.ar    
   3 C3            -1.1703    -0.7456     0.2392 C.ar    
   4 C4            -2.3887    -0.0901     0.3907 C.ar    
   5 C5            -2.4024     1.2900     0.6734 C.ar    
   6 C6            -1.1922     1.9832     0.8033 C.ar    
   7 N7            -3.6970    -0.5088     0.3242 N.pl3   
   8 C8            -4.5229     0.5737     0.5578 C.2     
   9 C9            -3.7605     1.6777     0.7726 C.2     
  10 C10           -5.9929     0.5371     0.5717 C.2     
  11 O11           -6.6247     1.5537     0.7886 O.2     
  12 N12           -6.6403    -0.6230     0.3443 N.am    
  13 C13           -8.1047    -0.6595     0.3582 C.3     
  14 C14           -8.5820    -2.0851     0.0741 C.3     
  15 C15          -10.0885    -2.1227     0.0884 C.ar    
  16 C16          -10.7953    -1.9002    -1.0792 C.ar    
  17 C17          -12.1758    -1.9339    -1.0696 C.ar    
  18 C18          -12.8545    -2.1918     0.1147 C.ar    
  19 C19          -12.1415    -2.4149     1.2857 C.ar    
  20 C20          -10.7608    -2.3853     1.2679 C.ar    
  21 N21          -14.2508    -2.2262     0.1280 N.3     
  22 Cl22           1.4889     2.1833     0.7997 Cl      
  23 C23          -14.7812    -1.6645     1.3838 C.3     
  24 C24          -15.7320    -0.5103     1.0028 C.3     
  25 C25          -16.1266    -0.8505    -0.4585 C.3     
  26 C26          -14.8105    -1.4582    -1.0046 C.3     
  27 C27           -4.4214     3.2463     2.5758 C.3     
  28 C28           -4.2693     3.0659     1.0641 C.3     
  29 H29            0.9506    -0.5530     0.2484 H       
  30 H30           -1.1479    -1.8033     0.0220 H       
  31 H31           -1.1948     3.0413     1.0199 H       
  32 H32           -3.9915    -1.4150     0.1427 H       
  33 H33           -6.1365    -1.4337     0.1714 H       
  34 H34           -8.4668    -0.3434     1.3365 H       
  35 H35           -8.4922     0.0127    -0.4073 H       
  36 H36           -8.2200    -2.4013    -0.9042 H       
  37 H37           -8.1945    -2.7574     0.8395 H       
  38 H38          -10.2670    -1.6994    -1.9996 H       
  39 H39          -12.7272    -1.7596    -1.9818 H       
  40 H40          -12.6660    -2.6157     2.2082 H       
  41 H41          -10.2058    -2.5591     2.1779 H       
  42 H42          -15.3296    -2.4315     1.9307 H       
  43 H43          -13.9625    -1.2841     1.9948 H       
  44 H44          -16.6105    -0.5056     1.6481 H       
  45 H45          -15.2135     0.4474     1.0489 H       
  46 H46          -16.9346    -1.5817    -0.4846 H       
  47 H47          -16.3989     0.0499    -1.0092 H       
  48 H48          -14.1227    -0.6673    -1.3036 H       
  49 H49          -15.0183    -2.1197    -1.8457 H       
  50 H50           -5.1293     2.5118     2.9600 H       
  51 H51           -3.4540     3.1053     3.0578 H       
  52 H52           -4.7894     4.2504     2.7867 H       
  53 H53           -3.5615     3.8004     0.6800 H       
  54 H54           -5.2368     3.2070     0.5822 H       
@<TRIPOS>BOND
   1    1    2 ar
   2    1   22 1
   3    1    6 ar
   4    2    3 ar
   5    2   29 1
   6    3    4 ar
   7    3   30 1
   8    4    5 ar
   9    4    7 1
  10    5    6 ar
  11    5    9 1
  12    6   31 1
  13    7    8 1
  14    7   32 1
  15    8    9 2
  16    8   10 1
  17    9   28 1
  18   10   11 2
  19   10   12 am
  20   12   13 1
  21   12   33 1
  22   13   14 1
  23   13   34 1
  24   13   35 1
  25   14   15 1
  26   14   36 1
  27   14   37 1
  28   15   16 ar
  29   15   20 ar
  30   16   17 ar
  31   16   38 1
  32   17   18 ar
  33   17   39 1
  34   18   19 ar
  35   18   21 1
  36   19   20 ar
  37   19   40 1
  38   20   41 1
  39   21   23 1
  40   21   26 1
  41   23   24 1
  42   23   42 1
  43   23   43 1
  44   24   25 1
  45   24   44 1
  46   24   45 1
  47   25   26 1
  48   25   46 1
  49   25   47 1
  50   26   48 1
  51   26   49 1
  52   27   28 1
  53   27   50 1
  54   27   51 1
  55   27   52 1
  56   28   53 1
  57   28   54 1

#	End of record

