#	Name: ASD01231298
#	Creating user name:	WinNT
#	Creation time:	15. 06. 2019 19:15

#	Modifying user name:	WinNT
#	Modification time:	15. 06. 2019 19:15

#	Program:	/corina/corina34_cracker 3.40 0067  02.08.2006

@<TRIPOS>MOLECULE
ASD01231298
  55   57    0    0    0
SMALL
NO_CHARGES


@<TRIPOS>ATOM
   1 C1            -3.9194     0.5957     0.9323 C.3     
   2 C2            -3.3894    -0.8350     1.0476 C.3     
   3 C3            -4.5606    -1.8182     0.9987 C.3     
   4 S4            -2.2578    -1.1734    -0.3292 S.o2    
   5 O5            -2.9700    -1.2301    -1.5575 O.2     
   6 O6            -1.0739    -0.3976    -0.2039 O.2     
   7 N7            -1.7542    -2.7307    -0.0769 N.am    
   8 C8            -1.9329    -3.6386     2.2208 C.3     
   9 C9            -0.9989    -3.0695     1.1318 C.3     
  10 C10           -0.0407    -4.2501     0.8670 C.3     
  11 C11           -0.0265    -5.0454     2.1550 C.ar    
  12 C12            0.8673    -5.9997     2.6089 C.ar    
  13 C13            0.6748    -6.6043     3.8413 C.ar    
  14 C14           -0.4175    -6.2499     4.6205 C.ar    
  15 C15           -1.3066    -5.2977     4.1654 C.ar    
  16 C16           -1.1140    -4.6940     2.9332 C.ar    
  17 O17            1.5528    -7.5417     4.2850 O.3     
  18 C18            2.6273    -7.8294     3.5045 C.ar    
  19 C19            3.6565    -6.9081     3.3716 C.ar    
  20 C20            4.7477    -7.2032     2.5781 C.ar    
  21 C21            4.8153    -8.4156     1.9163 C.ar    
  22 C22            3.7913    -9.3353     2.0470 C.ar    
  23 C23            2.7000    -9.0472     2.8437 C.ar    
  24 C24            5.8655    -6.2030     2.4329 C.3     
  25 S25            8.3698    -5.7494     3.3481 S.o2    
  26 O26            9.0638    -6.2086     4.4999 O.2     
  27 O27            8.8064    -6.0990     2.0418 O.2     
  28 N28            6.8686    -6.4369     3.4747 N.am    
  29 C29            8.0614    -3.9653     3.4599 C.3     
  30 H30           -4.5993     0.7991     1.7596 H       
  31 H31           -3.0850     1.2962     0.9671 H       
  32 H32           -4.4514     0.7110    -0.0120 H       
  33 H33           -2.8574    -0.9503     1.9919 H       
  34 H34           -5.1925    -1.6744     1.8751 H       
  35 H35           -5.1456    -1.6418     0.0961 H       
  36 H36           -4.1780    -2.8388     0.9901 H       
  37 H37           -1.9593    -3.4185    -0.7294 H       
  38 H38           -2.2248    -2.8526     2.9172 H       
  39 H39           -2.8152    -4.0882     1.7652 H       
  40 H40           -0.4525    -2.2030     1.5042 H       
  41 H41           -0.4144    -4.8640     0.0476 H       
  42 H42            0.9595    -3.8816     0.6390 H       
  43 H43            1.7168    -6.2742     2.0012 H       
  44 H44           -0.5717    -6.7186     5.5812 H       
  45 H45           -2.1567    -5.0224     4.7719 H       
  46 H46            3.6041    -5.9609     3.8880 H       
  47 H47            5.6693    -8.6443     1.2960 H       
  48 H48            3.8465   -10.2814     1.5291 H       
  49 H49            1.9023    -9.7676     2.9488 H       
  50 H50            6.3277    -6.3144     1.4520 H       
  51 H51            5.4656    -5.1940     2.5336 H       
  52 H52            6.6534    -6.9946     4.2386 H       
  53 H53            9.0067    -3.4277     3.3848 H       
  54 H54            7.4035    -3.6586     2.6467 H       
  55 H55            7.5887    -3.7374     4.4153 H       
@<TRIPOS>BOND
   1    1    2 1
   2    1   30 1
   3    1   31 1
   4    1   32 1
   5    2    3 1
   6    2    4 1
   7    2   33 1
   8    3   34 1
   9    3   35 1
  10    3   36 1
  11    4    5 2
  12    4    6 2
  13    4    7 am
  14    7    9 1
  15    7   37 1
  16    8    9 1
  17    8   16 1
  18    8   38 1
  19    8   39 1
  20    9   10 1
  21    9   40 1
  22   10   11 1
  23   10   41 1
  24   10   42 1
  25   11   12 ar
  26   11   16 ar
  27   12   13 ar
  28   12   43 1
  29   13   14 ar
  30   13   17 1
  31   14   15 ar
  32   14   44 1
  33   15   16 ar
  34   15   45 1
  35   17   18 1
  36   18   19 ar
  37   18   23 ar
  38   19   20 ar
  39   19   46 1
  40   20   21 ar
  41   20   24 1
  42   21   22 ar
  43   21   47 1
  44   22   23 ar
  45   22   48 1
  46   23   49 1
  47   24   28 1
  48   24   50 1
  49   24   51 1
  50   25   26 2
  51   25   27 2
  52   25   28 am
  53   25   29 1
  54   28   52 1
  55   29   53 1
  56   29   54 1
  57   29   55 1

#	End of record

