#	Name: ASD01916586
#	Creating user name:	WinNT
#	Creation time:	15. 06. 2019 20:07

#	Modifying user name:	WinNT
#	Modification time:	15. 06. 2019 20:07

#	Program:	/corina/corina34_cracker 3.40 0067  02.08.2006

@<TRIPOS>MOLECULE
ASD01916586
  43   46    0    0    0
SMALL
NO_CHARGES


@<TRIPOS>ATOM
   1 C1            -0.0171     1.4078     0.0098 C.ar    
   2 C2             0.0021    -0.0041     0.0020 C.ar    
   3 N3            -1.1271    -0.7015     0.0097 N.ar    
   4 C4            -2.2982    -0.1111     0.0224 C.ar    
   5 C5            -2.4079     1.2899     0.0281 C.ar    
   6 C6            -1.2494     2.0683     0.0193 C.ar    
   7 N7             1.1539     2.0898     0.0023 N.2     
   8 C8             2.3021     1.4829    -0.0213 C.2     
   9 N9             2.4122     0.1206    -0.0285 N.am    
  10 C10            1.3186    -0.6672    -0.0160 C.2     
  11 C11           -3.6970     1.9134     0.0394 C.1     
  12 O12            1.4144    -1.8806    -0.0196 O.2     
  13 C13           -4.7538     2.4246     0.0487 C.1     
  14 C14           -6.0429     3.0481     0.0601 C.ar    
  15 N15           -6.1344     4.3745     0.0653 N.ar    
  16 C16           -7.3011     4.9852     0.0753 C.ar    
  17 C17           -8.4813     4.2637     0.0807 C.ar    
  18 C18           -8.4328     2.8762     0.0756 C.ar    
  19 C19           -7.1955     2.2582     0.0597 C.ar    
  20 C20            3.5793     2.2932    -0.0521 C.3     
  21 C21            4.1904     2.2065    -1.4483 C.3     
  22 C22            5.1070     1.0017    -1.5725 C.3     
  23 C23            4.3503    -0.3096    -1.4482 C.3     
  24 C24            3.7556    -0.4714    -0.0510 C.3     
  25 C25            5.8038     1.0459    -2.9339 C.3     
  26 F26            6.5537     2.2225    -3.0359 F       
  27 F27            6.6515    -0.0598    -3.0600 F       
  28 F28            4.8432     1.0156    -3.9505 F       
  29 H29           -3.1950    -0.7129     0.0283 H       
  30 H30           -1.3031     3.1470     0.0244 H       
  31 H31           -7.3370     6.0646     0.0797 H       
  32 H32           -9.4324     4.7754     0.0893 H       
  33 H33           -9.3413     2.2922     0.0800 H       
  34 H34           -7.1213     1.1808     0.0549 H       
  35 H35            3.3568     3.3337     0.1845 H       
  36 H36            4.2822     1.8939     0.6790 H       
  37 H37            3.3904     2.1242    -2.1841 H       
  38 H38            4.7632     3.1129    -1.6446 H       
  39 H39            5.8617     1.0489    -0.7874 H       
  40 H40            3.5460    -0.3294    -2.1836 H       
  41 H41            5.0330    -1.1364    -1.6442 H       
  42 H42            4.3897     0.0362     0.6759 H       
  43 H43            3.6911    -1.5308     0.1972 H       
@<TRIPOS>BOND
   1    1    2 ar
   2    1    7 1
   3    1    6 ar
   4    2    3 ar
   5    2   10 1
   6    3    4 ar
   7    4    5 ar
   8    4   29 1
   9    5    6 ar
  10    5   11 1
  11    6   30 1
  12    7    8 2
  13    8    9 1
  14    8   20 1
  15    9   10 am
  16    9   24 1
  17   10   12 2
  18   11   13 3
  19   13   14 1
  20   14   15 ar
  21   14   19 ar
  22   15   16 ar
  23   16   17 ar
  24   16   31 1
  25   17   18 ar
  26   17   32 1
  27   18   19 ar
  28   18   33 1
  29   19   34 1
  30   20   21 1
  31   20   35 1
  32   20   36 1
  33   21   22 1
  34   21   37 1
  35   21   38 1
  36   22   25 1
  37   22   23 1
  38   22   39 1
  39   23   24 1
  40   23   40 1
  41   23   41 1
  42   24   42 1
  43   24   43 1
  44   25   26 1
  45   25   27 1
  46   25   28 1

#	End of record

