#	Name: ASD01811217
#	Creating user name:	WinNT
#	Creation time:	15. 06. 2019 19:26

#	Modifying user name:	WinNT
#	Modification time:	15. 06. 2019 19:26

#	Program:	/corina/corina34_cracker 3.40 0067  02.08.2006

@<TRIPOS>MOLECULE
ASD01811217
  68   72    0    0    0
SMALL
NO_CHARGES


@<TRIPOS>ATOM
   1 C1            -3.9806     4.9911    -6.1591 C.1     
   2 C2            -3.2994     5.6269    -5.0717 C.ar    
   3 C3            -2.2158     4.9955    -4.4578 C.ar    
   4 C4            -1.5641     5.6137    -3.4108 C.ar    
   5 C5            -1.9823     6.8562    -2.9685 C.ar    
   6 C6            -3.0557     7.4873    -3.5719 C.ar    
   7 C7            -3.7122     6.8835    -4.6243 C.ar    
   8 N8            -4.5210     4.4867    -7.0217 N.1     
   9 N9            -0.8355     9.6260     0.0204 N.am    
  10 C10            0.0637     9.5252    -1.1372 C.3     
  11 C11           -0.6933     8.8644    -2.2935 C.3     
  12 C12           -1.2658     7.5251    -1.8238 C.3     
  13 C13           -2.2496     7.7633    -0.6759 C.3     
  14 C14           -1.5102     8.4116     0.4987 C.3     
  15 C15           -1.0333    10.8089     0.6353 C.2     
  16 C16           -2.0136    10.9145     1.7372 C.ar    
  17 C17           -3.0485    11.8503     1.6662 C.ar    
  18 C18           -3.9646    11.9502     2.6941 C.ar    
  19 C19           -3.8648    11.1276     3.7988 C.ar    
  20 C20           -2.8349    10.1880     3.8828 C.ar    
  21 C21           -1.9107    10.0773     2.8458 C.ar    
  22 O22           -0.4057    11.7889     0.2841 O.2     
  23 C23           -2.7289     9.3088     5.0666 C.2     
  24 N24           -3.6039     9.2400     6.0498 N.2     
  25 C25           -3.2000     8.3486     6.9500 C.2     
  26 C26           -2.0026     7.8199     6.5180 C.2     
  27 N27           -1.7165     8.4366     5.3140 N.pl3   
  28 C28           -1.1949     6.8021     7.1980 C.2     
  29 O29           -1.2906     6.6539     8.4021 O.2     
  30 N30           -0.3467     6.0308     6.4893 N.am    
  31 C31            0.4555     4.9863     7.1457 C.3     
  32 C32            0.2714     3.6767     6.3706 C.3     
  33 O33            0.5406     3.9076     4.9856 O.3     
  34 C34           -0.3483     4.8388     4.3639 C.3     
  35 C35           -0.2001     6.2042     5.0355 C.3     
  36 C36           -4.8692    11.2442     4.9162 C.3     
  37 C37           -3.1647    12.7529     0.4650 C.3     
  38 H38           -1.8887     4.0253    -4.8017 H       
  39 H39           -0.7258     5.1265    -2.9351 H       
  40 H40           -3.3771     8.4569    -3.2214 H       
  41 H41           -4.5468     7.3793    -5.0976 H       
  42 H42            0.3885    10.5220    -1.4355 H       
  43 H43            0.9309     8.9194    -0.8746 H       
  44 H44           -1.5067     9.5150    -2.6149 H       
  45 H45           -0.0106     8.6962    -3.1264 H       
  46 H46           -0.4543     6.8841    -1.4792 H       
  47 H47           -3.0482     8.4243    -1.0125 H       
  48 H48           -2.6745     6.8113    -0.3575 H       
  49 H49           -0.7713     7.7150     0.8947 H       
  50 H50           -2.2238     8.6737     1.2798 H       
  51 H51           -4.7628    12.6753     2.6342 H       
  52 H52           -1.1152     9.3492     2.9036 H       
  53 H53           -3.7187     8.0855     7.8600 H       
  54 H54           -0.9407     8.2782     4.7537 H       
  55 H55            1.5072     5.2724     7.1386 H       
  56 H56            0.1172     4.8552     8.1736 H       
  57 H57            0.9615     2.9258     6.7553 H       
  58 H58           -0.7535     3.3248     6.4885 H       
  59 H59           -0.1040     4.9240     3.3051 H       
  60 H60           -1.3754     4.4911     4.4746 H       
  61 H61           -0.9723     6.8792     4.6665 H       
  62 H62            0.7845     6.6150     4.8122 H       
  63 H63           -5.6519    10.4978     4.7806 H       
  64 H64           -4.3708    11.0786     5.8714 H       
  65 H65           -5.3112    12.2405     4.9049 H       
  66 H66           -3.7092    12.2370    -0.3259 H       
  67 H67           -3.7010    13.6603     0.7430 H       
  68 H68           -2.1682    13.0144     0.1092 H       
@<TRIPOS>BOND
   1    1    2 1
   2    1    8 3
   3    2    3 ar
   4    2    7 ar
   5    3    4 ar
   6    3   38 1
   7    4    5 ar
   8    4   39 1
   9    5    6 ar
  10    5   12 1
  11    6    7 ar
  12    6   40 1
  13    7   41 1
  14    9   10 1
  15    9   14 1
  16    9   15 am
  17   10   11 1
  18   10   42 1
  19   10   43 1
  20   11   12 1
  21   11   44 1
  22   11   45 1
  23   12   13 1
  24   12   46 1
  25   13   14 1
  26   13   47 1
  27   13   48 1
  28   14   49 1
  29   14   50 1
  30   15   16 1
  31   15   22 2
  32   16   17 ar
  33   16   21 ar
  34   17   18 ar
  35   17   37 1
  36   18   19 ar
  37   18   51 1
  38   19   20 ar
  39   19   36 1
  40   20   21 ar
  41   20   23 1
  42   21   52 1
  43   23   24 2
  44   23   27 1
  45   24   25 1
  46   25   26 2
  47   25   53 1
  48   26   27 1
  49   26   28 1
  50   27   54 1
  51   28   29 2
  52   28   30 am
  53   30   31 1
  54   30   35 1
  55   31   32 1
  56   31   55 1
  57   31   56 1
  58   32   33 1
  59   32   57 1
  60   32   58 1
  61   33   34 1
  62   34   35 1
  63   34   59 1
  64   34   60 1
  65   35   61 1
  66   35   62 1
  67   36   63 1
  68   36   64 1
  69   36   65 1
  70   37   66 1
  71   37   67 1
  72   37   68 1

#	End of record

