#	Name: ASD01840221
#	Creating user name:	WinNT
#	Creation time:	15. 06. 2019 19:37

#	Modifying user name:	WinNT
#	Modification time:	15. 06. 2019 19:37

#	Program:	/corina/corina34_cracker 3.40 0067  02.08.2006

@<TRIPOS>MOLECULE
ASD01840221
  46   49    0    0    0
SMALL
NO_CHARGES


@<TRIPOS>ATOM
   1 C1            -0.1661     1.0973     0.2346 C.ar    
   2 C2            -0.1063    -0.2725     0.1055 C.ar    
   3 N3             1.0640    -0.8868     0.0650 N.ar    
   4 N4             2.1770    -0.2579     0.1415 N.ar    
   5 C5             1.0516     1.8107     0.3207 C.ar    
   6 C6             2.6089     3.5677     0.5101 C.2     
   7 C7             1.2953     3.2346     0.4589 C.2     
   8 C8             2.2396     1.0699     0.2684 C.ar    
   9 S9             3.6254     2.1447     0.3913 S.3     
  10 N10            0.2743     4.1725     0.5324 N.pl3   
  11 C11            3.1112     4.9340     0.6468 C.2     
  12 N12            4.4387     5.1630     0.6883 N.am    
  13 O13            2.3302     5.8649     0.7232 O.2     
  14 C14           -1.4903     1.8153     0.2765 C.3     
  15 C15           -1.3789    -1.0742     0.0108 C.3     
  16 C16            4.9419     6.5320     0.8253 C.3     
  17 C17            6.0935     6.7667     1.8050 C.3     
  18 C18            6.3480     6.8240     0.2974 C.3     
  19 C19            6.5937     8.1785    -0.3158 C.ar    
  20 C20            7.0042     8.2758    -1.6325 C.ar    
  21 C21            7.2301     9.5162    -2.1970 C.ar    
  22 C22            7.0448    10.6649    -1.4415 C.ar    
  23 C23            6.6329    10.5646    -0.1205 C.ar    
  24 C24            6.4029     9.3220     0.4376 C.ar    
  25 O25            7.2668    11.8864    -1.9943 O.3     
  26 C26            7.0560    13.0253    -1.1574 C.3     
  27 H27            0.4599     5.1068     0.3493 H       
  28 H28           -0.6246     3.8934     0.7667 H       
  29 H29            5.0609     4.4214     0.6274 H       
  30 H30           -1.7782     1.9865     1.3137 H       
  31 H31           -1.4014     2.7719    -0.2385 H       
  32 H32           -2.2492     1.2069    -0.2156 H       
  33 H33           -1.6706    -1.1704    -1.0350 H       
  34 H34           -1.2167    -2.0649     0.4354 H       
  35 H35           -2.1698    -0.5670     0.5634 H       
  36 H36            4.1944     7.3195     0.7293 H       
  37 H37            6.1037     7.7087     2.3533 H       
  38 H38            6.4766     5.9025     2.3476 H       
  39 H39            6.8986     5.9975    -0.1518 H       
  40 H40            7.1486     7.3812    -2.2202 H       
  41 H41            7.5510     9.5917    -3.2254 H       
  42 H42            6.4881    11.4574     0.4697 H       
  43 H43            6.0777     9.2436     1.4645 H       
  44 H44            6.0199    13.0409    -0.8192 H       
  45 H45            7.7192    12.9696    -0.2942 H       
  46 H46            7.2681    13.9342    -1.7205 H       
@<TRIPOS>BOND
   1    1    2 ar
   2    1    5 ar
   3    1   14 1
   4    2    3 ar
   5    2   15 1
   6    3    4 ar
   7    4    8 ar
   8    5    8 ar
   9    5    7 1
  10    6    7 2
  11    6    9 1
  12    6   11 1
  13    7   10 1
  14    8    9 1
  15   10   27 1
  16   10   28 1
  17   11   12 am
  18   11   13 2
  19   12   16 1
  20   12   29 1
  21   14   30 1
  22   14   31 1
  23   14   32 1
  24   15   33 1
  25   15   34 1
  26   15   35 1
  27   16   17 1
  28   16   18 1
  29   16   36 1
  30   17   18 1
  31   17   37 1
  32   17   38 1
  33   18   19 1
  34   18   39 1
  35   19   20 ar
  36   19   24 ar
  37   20   21 ar
  38   20   40 1
  39   21   22 ar
  40   21   41 1
  41   22   23 ar
  42   22   25 1
  43   23   24 ar
  44   23   42 1
  45   24   43 1
  46   25   26 1
  47   26   44 1
  48   26   45 1
  49   26   46 1

#	End of record

