#	Name: ASD01816316
#	Creating user name:	WinNT
#	Creation time:	15. 06. 2019 19:35

#	Modifying user name:	WinNT
#	Modification time:	15. 06. 2019 19:35

#	Program:	/corina/corina34_cracker 3.40 0067  02.08.2006

@<TRIPOS>MOLECULE
ASD01816316
  58   63    0    0    0
SMALL
NO_CHARGES


@<TRIPOS>ATOM
   1 C1             0.0762     1.4768    -1.5338 C.ar    
   2 C2             0.1011     0.0984    -1.6722 C.ar    
   3 C3             1.2868    -0.5980    -1.5619 C.ar    
   4 C4             2.4730     0.0820    -1.3095 C.ar    
   5 C5             2.4445     1.4797    -1.1702 C.ar    
   6 C6             1.2425     2.1705    -1.2835 C.ar    
   7 N7             3.6660    -0.6109    -1.1968 N.pl3   
   8 C8             4.8413    -0.0086    -0.9540 C.2     
   9 C9             4.9369     1.3521    -0.7994 C.2     
  10 C10            3.7145     2.1813    -0.9027 C.2     
  11 C11            6.0172     2.2977    -0.5364 C.2     
  12 N12            5.4458     3.5209    -0.4992 N.am    
  13 N13            4.0700     3.4206    -0.7211 N.2     
  14 O14            7.1988     2.0358    -0.3813 O.2     
  15 C15            3.6453    -2.0678    -1.3488 C.3     
  16 C16            3.8531    -2.4247    -2.7981 C.ar    
  17 C17            5.1327    -2.6235    -3.2831 C.ar    
  18 C18            5.3264    -2.9502    -4.6110 C.ar    
  19 C19            4.2347    -3.0794    -5.4590 C.ar    
  20 C20            2.9512    -2.8796    -4.9690 C.ar    
  21 C21            2.7635    -2.5582    -3.6389 C.ar    
  22 N22            4.4281    -3.4104    -6.8074 N.pl3   
  23 C23            3.4573    -3.5664    -7.7358 C.2     
  24 C24            4.0554    -3.8822    -8.9078 C.2     
  25 C25            5.4370    -3.9207    -8.6898 C.2     
  26 N26            5.6617    -3.6323    -7.4332 N.2     
  27 C27            6.1338     4.7183    -0.2711 C.ar    
  28 C28            5.4451     5.9227    -0.2538 C.ar    
  29 C29            6.1309     7.1075    -0.0274 C.ar    
  30 C30            7.5040     7.0846     0.1812 C.ar    
  31 C31            8.1872     5.8835     0.1634 C.ar    
  32 C32            7.5067     4.7016    -0.0560 C.ar    
  33 N33            5.4400     8.3242    -0.0097 N.am    
  34 O34            3.6350     7.3677     0.8557 O.2     
  35 C35            4.1917     8.3831     0.4949 C.2     
  36 C36            3.4876     9.7104     0.6109 C.3     
  37 H37           -0.8582     2.0104    -1.6266 H       
  38 H38           -0.8168    -0.4360    -1.8680 H       
  39 H39            1.2936    -1.6724    -1.6714 H       
  40 H40            1.2222     3.2450    -1.1765 H       
  41 H41            5.7348    -0.6105    -0.8781 H       
  42 H42            4.4421    -2.5071    -0.7486 H       
  43 H43            2.6828    -2.4544    -1.0138 H       
  44 H44            5.9815    -2.5229    -2.6230 H       
  45 H45            6.3261    -3.1047    -4.9894 H       
  46 H46            2.1001    -2.9790    -5.6264 H       
  47 H47            1.7653    -2.4026    -3.2572 H       
  48 H48            2.3954    -3.4590    -7.5712 H       
  49 H49            3.5547    -4.0712    -9.8459 H       
  50 H50            6.1888    -4.1453    -9.4319 H       
  51 H51            4.3775     5.9379    -0.4166 H       
  52 H52            8.0384     8.0065     0.3571 H       
  53 H53            9.2548     5.8684     0.3255 H       
  54 H54            8.0434     3.7645    -0.0693 H       
  55 H55            5.8596     9.1253    -0.3606 H       
  56 H56            4.1398    10.5012     0.2402 H       
  57 H57            2.5715     9.6885     0.0207 H       
  58 H58            3.2424     9.9016     1.6556 H       
@<TRIPOS>BOND
   1    1    2 ar
   2    1    6 ar
   3    1   37 1
   4    2    3 ar
   5    2   38 1
   6    3    4 ar
   7    3   39 1
   8    4    5 ar
   9    4    7 1
  10    5    6 ar
  11    5   10 1
  12    6   40 1
  13    7    8 1
  14    7   15 1
  15    8    9 2
  16    8   41 1
  17    9   10 1
  18    9   11 1
  19   10   13 2
  20   11   12 am
  21   11   14 2
  22   12   13 1
  23   12   27 1
  24   15   16 1
  25   15   42 1
  26   15   43 1
  27   16   17 ar
  28   16   21 ar
  29   17   18 ar
  30   17   44 1
  31   18   19 ar
  32   18   45 1
  33   19   20 ar
  34   19   22 1
  35   20   21 ar
  36   20   46 1
  37   21   47 1
  38   22   23 1
  39   22   26 1
  40   23   24 2
  41   23   48 1
  42   24   25 1
  43   24   49 1
  44   25   26 2
  45   25   50 1
  46   27   28 ar
  47   27   32 ar
  48   28   29 ar
  49   28   51 1
  50   29   30 ar
  51   29   33 1
  52   30   31 ar
  53   30   52 1
  54   31   32 ar
  55   31   53 1
  56   32   54 1
  57   33   35 am
  58   33   55 1
  59   34   35 2
  60   35   36 1
  61   36   56 1
  62   36   57 1
  63   36   58 1

#	End of record

