#	Name: ASD01001186
#	Creating user name:	WinNT
#	Creation time:	15. 06. 2019 18:55

#	Modifying user name:	WinNT
#	Modification time:	15. 06. 2019 18:55

#	Program:	/corina/corina34_cracker 3.40 0067  02.08.2006

@<TRIPOS>MOLECULE
ASD01001186
  52   55    0    0    0
SMALL
NO_CHARGES


@<TRIPOS>ATOM
   1 C1            -0.0162     1.3470     0.0094 C.2     
   2 C2             1.2851     2.1069     0.0011 C.3     
   3 C3             1.4141     2.9014    -1.3015 C.3     
   4 N4             1.3085     3.0676     1.1137 N.pl3   
   5 C5             1.2704     1.9714    -2.5032 C.3     
   6 C6             2.7682     3.6062    -1.3275 C.3     
   7 C7             2.2426     4.1093     1.0904 C.ar    
   8 C8             2.4528     0.9988    -2.5435 C.3     
   9 C9             2.9589     4.4015    -0.0599 C.ar    
  10 O10            3.8188     2.6412    -1.4239 O.3     
  11 C11            2.4479     4.8580     2.2443 C.ar    
  12 C12            3.7541     1.8062    -2.5803 C.3     
  13 C13            3.8716     5.4418    -0.0538 C.ar    
  14 C14            3.3613     5.8933     2.2430 C.ar    
  15 C15            4.0723     6.1852     1.0937 C.ar    
  16 C16            5.0679     7.3165     1.0922 C.3     
  17 C17            4.6592     8.3543     0.0450 C.3     
  18 C18            5.0978     7.9713     2.4747 C.3     
  19 C19            6.4577     6.7722     0.7556 C.3     
  20 C20            0.0021    -0.0041     0.0020 C.2     
  21 C21           -1.2112    -0.8075     0.0093 C.2     
  22 C22           -2.4219    -0.2442     0.0243 C.2     
  23 C23           -2.5237     1.2651     0.0339 C.3     
  24 C24           -1.2329     2.0556     0.0307 C.2     
  25 S25           -1.2517     3.7674     0.0415 S.2     
  26 H26            2.1195     1.4117     0.0942 H       
  27 H27            0.6311     3.6588    -1.3386 H       
  28 H28            0.6859     2.9809     1.8523 H       
  29 H29            0.3406     1.4091    -2.4179 H       
  30 H30            1.2546     2.5618    -3.4193 H       
  31 H31            2.8123     4.2760    -2.1863 H       
  32 H32            2.4385     0.3691    -1.6539 H       
  33 H33            2.3837     0.3763    -3.4356 H       
  34 H34            1.8922     4.6297     3.1418 H       
  35 H35            4.6053     1.1254    -2.5862 H       
  36 H36            3.7742     2.4244    -3.4778 H       
  37 H37            4.4295     5.6732    -0.9491 H       
  38 H38            3.5202     6.4749     3.1391 H       
  39 H39            3.6691     8.7420     0.2849 H       
  40 H40            5.3794     9.1725     0.0440 H       
  41 H41            4.6379     7.8878    -0.9399 H       
  42 H42            5.3890     7.2319     3.2208 H       
  43 H43            5.8180     8.7895     2.4736 H       
  44 H44            4.1077     8.3590     2.7145 H       
  45 H45            6.4364     6.3057    -0.2293 H       
  46 H46            7.1778     7.5904     0.7545 H       
  47 H47            6.7489     6.0328     1.5016 H       
  48 H48            0.9569    -0.5087    -0.0102 H       
  49 H49           -1.1307    -1.8844     0.0020 H       
  50 H50           -3.3124    -0.8552     0.0292 H       
  51 H51           -3.1043     1.5658    -0.8383 H       
  52 H52           -3.0872     1.5557     0.9206 H       
@<TRIPOS>BOND
   1    1   20 2
   2    1    2 1
   3    1   24 1
   4    2    3 1
   5    2    4 1
   6    2   26 1
   7    3    5 1
   8    3    6 1
   9    3   27 1
  10    4    7 1
  11    4   28 1
  12    5    8 1
  13    5   29 1
  14    5   30 1
  15    6    9 1
  16    6   10 1
  17    6   31 1
  18    7    9 ar
  19    7   11 ar
  20    8   12 1
  21    8   32 1
  22    8   33 1
  23    9   13 ar
  24   10   12 1
  25   11   14 ar
  26   11   34 1
  27   12   35 1
  28   12   36 1
  29   13   15 ar
  30   13   37 1
  31   14   15 ar
  32   14   38 1
  33   15   16 1
  34   16   17 1
  35   16   18 1
  36   16   19 1
  37   17   39 1
  38   17   40 1
  39   17   41 1
  40   18   42 1
  41   18   43 1
  42   18   44 1
  43   19   45 1
  44   19   46 1
  45   19   47 1
  46   20   21 1
  47   20   48 1
  48   21   22 2
  49   21   49 1
  50   22   23 1
  51   22   50 1
  52   23   24 1
  53   23   51 1
  54   23   52 1
  55   24   25 2

#	End of record

