#	Name: ASD01820060
#	Creating user name:	WinNT
#	Creation time:	15. 06. 2019 19:36

#	Modifying user name:	WinNT
#	Modification time:	15. 06. 2019 19:36

#	Program:	/corina/corina34_cracker 3.40 0067  02.08.2006

@<TRIPOS>MOLECULE
ASD01820060
  73   78    0    0    0
SMALL
NO_CHARGES


@<TRIPOS>ATOM
   1 C1            -0.0167     1.3781     0.0096 C.ar    
   2 C2             0.0021    -0.0041     0.0020 C.ar    
   3 C3             1.2063    -0.6904    -0.0127 C.ar    
   4 C4             2.3989     0.0151    -0.0203 C.ar    
   5 C5             2.3798     1.4244    -0.0130 C.ar    
   6 C6             1.1684     2.0970     0.0022 C.ar    
   7 C7             3.8260    -0.3700    -0.0355 C.2     
   8 N8             4.5720     0.7494    -0.0368 N.am    
   9 C9             3.7959     1.8481    -0.0241 C.2     
  10 O10            4.1923     2.9960    -0.0228 O.2     
  11 O11            4.2534    -1.5068    -0.0446 O.2     
  12 C12            6.0368     0.7693    -0.0497 C.3     
  13 O13            6.4969     1.1306    -1.3535 O.3     
  14 N14            7.9069     1.1792    -1.4737 N.2     
  15 C15            8.4488     1.4941    -2.6044 C.2     
  16 C16            9.9199     1.5448    -2.7298 C.ar    
  17 C17           10.5272     1.8835    -3.9447 C.ar    
  18 C18           11.9047     1.9186    -4.0169 C.ar    
  19 N19           12.6458     1.6388    -2.9622 N.ar    
  20 C20           12.1146     1.3147    -1.7992 C.ar    
  21 C21           10.7455     1.2613    -1.6355 C.ar    
  22 C22           14.1046     1.6891    -3.0866 C.3     
  23 C23           14.5969     3.0980    -2.7498 C.3     
  24 C24           16.1205     3.1505    -2.8797 C.3     
  25 N25           16.5919     4.4996    -2.5573 N.ar    
  26 C26           16.9024     4.7861    -1.3077 C.ar    
  27 C27           17.3508     6.0438    -0.9594 C.ar    
  28 C28           17.4736     7.0201    -1.9549 C.ar    
  29 C29           17.1328     6.6715    -3.2671 C.ar    
  30 C30           16.6976     5.3880    -3.5265 C.ar    
  31 C31           17.9489     8.3805    -1.6297 C.2     
  32 N32           18.0555     9.2684    -2.5634 N.2     
  33 O33           18.5112    10.5723    -2.2517 O.3     
  34 C34           18.5799    11.4487    -3.3783 C.3     
  35 N35           19.0604    12.7634    -2.9457 N.am    
  36 C36           20.3011    13.2322    -3.1704 C.2     
  37 C37           20.4058    14.5863    -2.5872 C.ar    
  38 C38           19.1462    14.8588    -2.0163 C.ar    
  39 C39           18.3171    13.6630    -2.2765 C.2     
  40 C40           21.4155    15.5323    -2.5120 C.ar    
  41 C41           21.1792    16.7406    -1.8752 C.ar    
  42 C42           19.9439    17.0077    -1.3153 C.ar    
  43 C43           18.9244    16.0710    -1.3828 C.ar    
  44 O44           21.1871    12.6415    -3.7544 O.2     
  45 O45           17.1606    13.5147    -1.9366 O.2     
  46 H46           -0.9613     1.9015     0.0169 H       
  47 H47           -0.9280    -0.5530     0.0079 H       
  48 H48            1.2149    -1.7703    -0.0179 H       
  49 H49            1.1477     3.1767     0.0074 H       
  50 H50            6.3966     1.4974     0.6773 H       
  51 H51            6.4159    -0.2195     0.2083 H       
  52 H52            7.8260     1.7201    -3.4573 H       
  53 H53            9.9267     2.1134    -4.8124 H       
  54 H54           12.3827     2.1784    -4.9499 H       
  55 H55           12.7601     1.0926    -0.9622 H       
  56 H56           10.3175     0.9952    -0.6803 H       
  57 H57           14.5529     0.9732    -2.3976 H       
  58 H58           14.3910     1.4386    -4.1080 H       
  59 H59           14.1486     3.8139    -3.4388 H       
  60 H60           14.3105     3.3485    -1.7284 H       
  61 H61           16.5688     2.4347    -2.1907 H       
  62 H62           16.4069     2.9000    -3.9011 H       
  63 H63           16.8039     4.0261    -0.5468 H       
  64 H64           17.6029     6.2714     0.0658 H       
  65 H65           17.2131     7.3950    -4.0649 H       
  66 H66           16.4324     5.1093    -4.5356 H       
  67 H67           18.2074     8.6334    -0.6121 H       
  68 H68           19.2662    11.0365    -4.1180 H       
  69 H69           17.5887    11.5514    -3.8199 H       
  70 H70           22.3827    15.3288    -2.9473 H       
  71 H71           21.9657    17.4783    -1.8158 H       
  72 H72           19.7720    17.9529    -0.8218 H       
  73 H73           17.9613    16.2852    -0.9436 H       
@<TRIPOS>BOND
   1    1    2 ar
   2    1    6 ar
   3    1   46 1
   4    2    3 ar
   5    2   47 1
   6    3    4 ar
   7    3   48 1
   8    4    5 ar
   9    4    7 1
  10    5    6 ar
  11    5    9 1
  12    6   49 1
  13    7    8 am
  14    7   11 2
  15    8    9 am
  16    8   12 1
  17    9   10 2
  18   12   13 1
  19   12   50 1
  20   12   51 1
  21   13   14 1
  22   14   15 2
  23   15   16 1
  24   15   52 1
  25   16   17 ar
  26   16   21 ar
  27   17   18 ar
  28   17   53 1
  29   18   19 ar
  30   18   54 1
  31   19   20 ar
  32   19   22 1
  33   20   21 ar
  34   20   55 1
  35   21   56 1
  36   22   23 1
  37   22   57 1
  38   22   58 1
  39   23   24 1
  40   23   59 1
  41   23   60 1
  42   24   25 1
  43   24   61 1
  44   24   62 1
  45   25   26 ar
  46   25   30 ar
  47   26   27 ar
  48   26   63 1
  49   27   28 ar
  50   27   64 1
  51   28   29 ar
  52   28   31 1
  53   29   30 ar
  54   29   65 1
  55   30   66 1
  56   31   32 2
  57   31   67 1
  58   32   33 1
  59   33   34 1
  60   34   35 1
  61   34   68 1
  62   34   69 1
  63   35   36 am
  64   35   39 am
  65   36   37 1
  66   36   44 2
  67   37   38 ar
  68   37   40 ar
  69   38   39 1
  70   38   43 ar
  71   39   45 2
  72   40   41 ar
  73   40   70 1
  74   41   42 ar
  75   41   71 1
  76   42   43 ar
  77   42   72 1
  78   43   73 1

#	End of record

