#	Name: ASD01900159
#	Creating user name:	WinNT
#	Creation time:	15. 06. 2019 19:51

#	Modifying user name:	WinNT
#	Modification time:	15. 06. 2019 19:51

#	Program:	/corina/corina34_cracker 3.40 0067  02.08.2006

@<TRIPOS>MOLECULE
ASD01900159
  39   41    0    0    0
SMALL
NO_CHARGES


@<TRIPOS>ATOM
   1 C1             0.0376     1.3063     0.1281 C.ar    
   2 C2            -1.1247     1.6635    -0.5360 C.ar    
   3 C3            -1.1565     2.8428    -1.2641 C.ar    
   4 C4            -0.0150     3.6277    -1.3013 C.ar    
   5 C5             1.1187     3.2065    -0.6094 C.ar    
   6 N6             1.1072     2.0700     0.0761 N.ar    
   7 C7             2.3469     4.0340    -0.6391 C.2     
   8 N8             3.4467     3.6318     0.0281 N.am    
   9 O9             2.3629     5.0756    -1.2652 O.2     
  10 C10            4.6364     4.3614    -0.0795 C.ar    
  11 C11            4.5952     5.7459    -0.1800 C.ar    
  12 C12            5.7695     6.4657    -0.2863 C.ar    
  13 C13            6.9916     5.8038    -0.2924 C.ar    
  14 C14            7.0318     4.4193    -0.1918 C.ar    
  15 C15            5.8585     3.7008    -0.0800 C.ar    
  16 N16            8.1824     6.5330    -0.4005 N.am    
  17 C17            9.3125     5.9215    -0.8072 C.2     
  18 O18            9.2782     4.7633    -1.1756 O.2     
  19 Cl19           5.7187     8.1963    -0.4126 Cl      
  20 C20           10.5922     6.6582    -0.8055 C.ar    
  21 C21           11.7672     6.0270    -1.2269 C.ar    
  22 C22           12.9612     6.7243    -1.2219 C.ar    
  23 C23           12.9937     8.0411    -0.8019 C.ar    
  24 C24           11.8341     8.6704    -0.3835 C.ar    
  25 C25           10.6346     7.9901    -0.3886 C.ar    
  26 F26           11.7356     4.7401    -1.6369 F       
  27 H27            0.0644     0.3905     0.6998 H       
  28 H28           -1.9975     1.0292    -0.4872 H       
  29 H29           -2.0504     3.1429    -1.7906 H       
  30 H30           -0.0042     4.5525    -1.8589 H       
  31 H31            3.4137     2.8369     0.5829 H       
  32 H32            3.6453     6.2597    -0.1756 H       
  33 H33            7.9814     3.9050    -0.1970 H       
  34 H34            5.8902     2.6242    -0.0015 H       
  35 H35            8.1938     7.4782    -0.1827 H       
  36 H36           13.8700     6.2394    -1.5464 H       
  37 H37           13.9289     8.5814    -0.8000 H       
  38 H38           11.8680     9.6992    -0.0565 H       
  39 H39            9.7305     8.4851    -0.0662 H       
@<TRIPOS>BOND
   1    1    2 ar
   2    1    6 ar
   3    1   27 1
   4    2    3 ar
   5    2   28 1
   6    3    4 ar
   7    3   29 1
   8    4    5 ar
   9    4   30 1
  10    5    6 ar
  11    5    7 1
  12    7    8 am
  13    7    9 2
  14    8   10 1
  15    8   31 1
  16   10   11 ar
  17   10   15 ar
  18   11   12 ar
  19   11   32 1
  20   12   13 ar
  21   12   19 1
  22   13   14 ar
  23   13   16 1
  24   14   15 ar
  25   14   33 1
  26   15   34 1
  27   16   17 am
  28   16   35 1
  29   17   18 2
  30   17   20 1
  31   20   21 ar
  32   20   25 ar
  33   21   22 ar
  34   21   26 1
  35   22   23 ar
  36   22   36 1
  37   23   24 ar
  38   23   37 1
  39   24   25 ar
  40   24   38 1
  41   25   39 1

#	End of record

