#	Name: ASD01816742
#	Creating user name:	WinNT
#	Creation time:	15. 06. 2019 19:35

#	Modifying user name:	WinNT
#	Modification time:	15. 06. 2019 19:35

#	Program:	/corina/corina34_cracker 3.40 0067  02.08.2006

@<TRIPOS>MOLECULE
ASD01816742
  63   67    0    0    0
SMALL
NO_CHARGES


@<TRIPOS>ATOM
   1 C1            -0.0167     1.3960     0.0136 C.2     
   2 C2             0.0025    -0.0052    -0.0037 C.2     
   3 C3             1.1989    -0.6602    -0.0251 C.2     
   4 C4             2.3922     0.0815    -0.0294 C.2     
   5 N5             2.3439     1.4491    -0.0118 N.am    
   6 C6             1.1420     2.0927     0.0091 C.2     
   7 C7             3.6230    -0.5886    -0.0513 C.2     
   8 C8             4.7879     0.1231    -0.0557 C.2     
   9 C9             4.7340     1.5284    -0.0381 C.2     
  10 C10            3.4813     2.1731    -0.0159 C.2     
  11 C11            3.6605    -2.0951    -0.0695 C.3     
  12 O12            3.4256     3.3913    -0.0005 O.2     
  13 C13            5.9710     2.3159    -0.0418 C.2     
  14 N14            7.1647     1.6963     0.0459 N.am    
  15 O15            5.9198     3.5292    -0.1240 O.2     
  16 N16            3.7776    -2.5653    -1.4563 N.3     
  17 C17            4.0546    -4.0078    -1.5016 C.3     
  18 C18            4.0902    -4.4721    -2.9596 C.3     
  19 N19            5.1211    -3.7177    -3.6862 N.3     
  20 C20            4.8441    -2.2752    -3.6408 C.3     
  21 C21            4.8084    -1.8109    -2.1828 C.3     
  22 C22            5.2321    -4.1632    -5.0001 C.ar    
  23 C23            6.1568    -3.5739    -5.8573 C.ar    
  24 C24            6.2692    -4.0121    -7.1573 C.ar    
  25 C25            5.4534    -5.0506    -7.6163 C.ar    
  26 C26            4.5259    -5.6405    -6.7524 C.ar    
  27 C27            4.4221    -5.2008    -5.4522 C.ar    
  28 C28            8.4025     2.4710    -0.0711 C.3     
  29 C29            9.5503     1.7428     0.6501 C.3     
  30 C30           10.6210     1.4408    -0.4185 C.3     
  31 C31           10.3618     2.4940    -1.5243 C.3     
  32 C32            8.8159     2.5861    -1.5529 C.3     
  33 C33            5.5673    -5.5086    -8.9683 C.1     
  34 N34            5.6576    -5.8720   -10.0408 N.1     
  35 H35           -0.9603     1.9212     0.0262 H       
  36 H36           -0.9228    -0.5622     0.0002 H       
  37 H37            1.2286    -1.7397    -0.0383 H       
  38 H38            1.1153     3.1723     0.0228 H       
  39 H39            5.7397    -0.3869    -0.0722 H       
  40 H40            4.5177    -2.4442     0.5062 H       
  41 H41            2.7434    -2.4867     0.3707 H       
  42 H42            7.2041     0.7373     0.1865 H       
  43 H43            5.0179    -4.2080    -1.0326 H       
  44 H44            3.2711    -4.5455    -0.9678 H       
  45 H45            4.3242    -5.5360    -2.9968 H       
  46 H46            3.1184    -4.2968    -3.4209 H       
  47 H47            5.6276    -1.7374    -4.1746 H       
  48 H48            3.8808    -2.0749    -4.1098 H       
  49 H49            4.5745    -0.7469    -2.1456 H       
  50 H50            5.7803    -1.9861    -1.7215 H       
  51 H51            6.7867    -2.7718    -5.5021 H       
  52 H52            6.9865    -3.5539    -7.8221 H       
  53 H53            3.8939    -6.4427    -7.1039 H       
  54 H54            3.7060    -5.6563    -4.7843 H       
  55 H55            8.2631     3.4639     0.3566 H       
  56 H56            9.9684     2.3826     1.4273 H       
  57 H57            9.1863     0.8130     1.0872 H       
  58 H58           11.6209     1.5631    -0.0021 H       
  59 H59           10.4920     0.4331    -0.8137 H       
  60 H60           10.8010     3.4542    -1.2538 H       
  61 H61           10.7460     2.1489    -2.4842 H       
  62 H62            8.3953     1.7634    -2.1312 H       
  63 H63            8.4983     3.5442    -1.9642 H       
@<TRIPOS>BOND
   1    1    2 1
   2    1    6 2
   3    1   35 1
   4    2    3 2
   5    2   36 1
   6    3    4 1
   7    3   37 1
   8    4    5 1
   9    4    7 2
  10    5    6 1
  11    5   10 am
  12    6   38 1
  13    7    8 1
  14    7   11 1
  15    8    9 2
  16    8   39 1
  17    9   10 1
  18    9   13 1
  19   10   12 2
  20   11   16 1
  21   11   40 1
  22   11   41 1
  23   13   15 2
  24   13   14 am
  25   14   28 1
  26   14   42 1
  27   16   17 1
  28   16   21 1
  29   17   18 1
  30   17   43 1
  31   17   44 1
  32   18   19 1
  33   18   45 1
  34   18   46 1
  35   19   20 1
  36   19   22 1
  37   20   21 1
  38   20   47 1
  39   20   48 1
  40   21   49 1
  41   21   50 1
  42   22   23 ar
  43   22   27 ar
  44   23   24 ar
  45   23   51 1
  46   24   25 ar
  47   24   52 1
  48   25   26 ar
  49   25   33 1
  50   26   27 ar
  51   26   53 1
  52   27   54 1
  53   28   29 1
  54   28   32 1
  55   28   55 1
  56   29   30 1
  57   29   56 1
  58   29   57 1
  59   30   31 1
  60   30   58 1
  61   30   59 1
  62   31   32 1
  63   31   60 1
  64   31   61 1
  65   32   62 1
  66   32   63 1
  67   33   34 3

#	End of record

