#	Name: ASD00960206
#	Creating user name:	WinNT
#	Creation time:	15. 06. 2019 18:53

#	Modifying user name:	WinNT
#	Modification time:	15. 06. 2019 18:53

#	Program:	/corina/corina34_cracker 3.40 0067  02.08.2006

@<TRIPOS>MOLECULE
ASD00960206
  39   41    0    0    0
SMALL
NO_CHARGES


@<TRIPOS>ATOM
   1 C1            -0.0170     1.4014     0.0097 C.2     
   2 C2             0.0021    -0.0041     0.0020 C.2     
   3 N3             1.2700     1.8423    -0.0002 N.pl3   
   4 C4             2.1106     0.7578    -0.0140 C.2     
   5 C5             1.3425    -0.3965    -0.0129 C.2     
   6 N6             1.8349     3.1261     0.0009 N.2     
   7 C7             3.1344     3.2703    -0.0111 C.2     
   8 N8             3.9609     2.2300    -0.0250 N.2     
   9 C9             3.5094     0.9875    -0.0254 C.2     
  10 N10            4.3898    -0.0740    -0.0396 N.pl3   
  11 C11           -1.1736    -0.8974     0.0089 C.2     
  12 N12           -1.0040    -2.2344     0.0000 N.am    
  13 O13           -2.2945    -0.4269     0.0225 O.2     
  14 C14           -2.1704    -3.1208     0.0068 C.3     
  15 C15           -1.2126     2.2434     0.0202 C.2     
  16 O16           -2.3166     1.7323     0.0228 O.2     
  17 O17           -1.0913     3.5874     0.0269 O.3     
  18 C18           -2.3011     4.3479     0.0370 C.3     
  19 C19           -1.9702     5.8181     0.0433 C.ar    
  20 C20           -1.8243     6.4989    -1.1509 C.ar    
  21 C21           -1.5207     7.8475    -1.1450 C.ar    
  22 C22           -1.3634     8.5153     0.0550 C.ar    
  23 C23           -1.5102     7.8347     1.2492 C.ar    
  24 C24           -1.8181     6.4871     1.2434 C.ar    
  25 H25            1.7122    -1.4112    -0.0215 H       
  26 H26            3.5495     4.2674    -0.0100 H       
  27 H27            5.3460     0.0891    -0.0493 H       
  28 H28            4.0529    -0.9836    -0.0398 H       
  29 H29           -0.1097    -2.6099    -0.0109 H       
  30 H30           -2.7618    -2.9363     0.9037 H       
  31 H31           -2.7794    -2.9267    -0.8762 H       
  32 H32           -1.8380    -4.1588    -0.0021 H       
  33 H33           -2.8866     4.1111    -0.8514 H       
  34 H34           -2.8778     4.1014     0.9285 H       
  35 H35           -1.9472     5.9771    -2.0884 H       
  36 H36           -1.4060     8.3792    -2.0780 H       
  37 H37           -1.1255     9.5688     0.0596 H       
  38 H38           -1.3870     8.3565     2.1868 H       
  39 H39           -1.9365     5.9562     2.1764 H       
@<TRIPOS>BOND
   1    1    2 2
   2    1    3 1
   3    1   15 1
   4    2   11 1
   5    2    5 1
   6    3    4 1
   7    3    6 1
   8    4    5 2
   9    4    9 1
  10    5   25 1
  11    6    7 2
  12    7    8 1
  13    7   26 1
  14    8    9 2
  15    9   10 1
  16   10   27 1
  17   10   28 1
  18   11   12 am
  19   11   13 2
  20   12   14 1
  21   12   29 1
  22   14   30 1
  23   14   31 1
  24   14   32 1
  25   15   16 2
  26   15   17 1
  27   17   18 1
  28   18   19 1
  29   18   33 1
  30   18   34 1
  31   19   20 ar
  32   19   24 ar
  33   20   21 ar
  34   20   35 1
  35   21   22 ar
  36   21   36 1
  37   22   23 ar
  38   22   37 1
  39   23   24 ar
  40   23   38 1
  41   24   39 1

#	End of record

