#	Name: ASD01912514
#	Creating user name:	WinNT
#	Creation time:	15. 06. 2019 19:59

#	Modifying user name:	WinNT
#	Modification time:	15. 06. 2019 19:59

#	Program:	/corina/corina34_cracker 3.40 0067  02.08.2006

@<TRIPOS>MOLECULE
ASD01912514
  20   21    0    0    0
SMALL
NO_CHARGES


@<TRIPOS>ATOM
   1 C1            -0.0167     1.3794     0.0096 C.ar    
   2 C2             0.0021    -0.0041     0.0020 C.ar    
   3 N3            -1.1136    -0.7058     0.0063 N.ar    
   4 C4            -2.3049    -0.1335     0.0180 C.ar    
   5 C5            -2.4018     1.2586     0.0320 C.ar    
   6 C6            -1.2360     2.0342     0.0306 C.ar    
   7 C7            -3.5327    -1.0041     0.0085 C.3     
   8 C8            -4.7413    -0.2622     0.5723 C.3     
   9 C9            -4.9402     1.0498    -0.1980 C.3     
  10 C10           -3.7224     1.9138     0.0592 C.2     
  11 O11           -3.8300     3.1012     0.2799 O.2     
  12 *12            1.3166     2.1892     0.0012 Du      
  13 *13            1.3726    -0.7490    -0.0125 Du      
  14 *14           -6.0141    -1.1516     0.4220 Du      
  15 *15           -4.5013     0.0519     2.0814 Du      
  16 H16           -1.2868     3.1130     0.0378 H       
  17 H17           -3.7466    -1.3086    -1.0160 H       
  18 H18           -3.3454    -1.8922     0.6122 H       
  19 H19           -5.0298     0.8436    -1.2645 H       
  20 H20           -5.8365     1.5570     0.1590 H       
@<TRIPOS>BOND
   1    1    2 ar
   2    1   12 1
   3    1    6 ar
   4    2    3 ar
   5    2   13 1
   6    3    4 ar
   7    4    5 ar
   8    4    7 1
   9    5    6 ar
  10    5   10 1
  11    6   16 1
  12    7    8 1
  13    7   17 1
  14    7   18 1
  15    8    9 1
  16    8   14 1
  17    8   15 1
  18    9   10 1
  19    9   19 1
  20    9   20 1
  21   10   11 2

#	End of record

