#	Name: ASD01912453
#	Creating user name:	WinNT
#	Creation time:	15. 06. 2019 19:59

#	Modifying user name:	WinNT
#	Modification time:	15. 06. 2019 19:59

#	Program:	/corina/corina34_cracker 3.40 0067  02.08.2006

@<TRIPOS>MOLECULE
ASD01912453
  42   43    0    0    0
SMALL
NO_CHARGES


@<TRIPOS>ATOM
   1 C1            -0.0169     1.3928     0.0240 C.ar    
   2 C2             0.0017    -0.0033     0.0132 C.ar    
   3 C3             1.2379    -0.6670    -0.0094 C.ar    
   4 C4             2.3897     0.0931    -0.0200 C.ar    
   5 C5             2.2891     1.4815    -0.0081 C.ar    
   6 N6             1.1074     2.0787     0.0132 N.ar    
   7 C7            -1.2222    -0.7466     0.0254 C.1     
   8 C8            -2.2256    -1.3560     0.0355 C.1     
   9 C9            -3.4495    -2.0994     0.0477 C.ar    
  10 C10           -3.4226    -3.4965     0.0368 C.ar    
  11 C11           -4.6054    -4.2057     0.0492 C.ar    
  12 C12           -5.8168    -3.5371     0.0723 C.ar    
  13 C13           -5.8513    -2.1538     0.0833 C.ar    
  14 C14           -4.6765    -1.4312     0.0765 C.ar    
  15 N15            3.4482     2.2537    -0.0187 N.am    
  16 C16            3.3632     3.5955    -0.1124 C.2     
  17 C17            4.6078     4.4386    -0.0066 C.3     
  18 O18            2.2851     4.1244    -0.2819 O.2     
  19 C19            4.2362     5.9163    -0.1451 C.3     
  20 C20            5.5103     6.7631    -0.1628 C.3     
  21 C21            5.2686     4.2041     1.3533 C.3     
  22 C22            5.1386     8.2408    -0.3013 C.3     
  23 H23           -0.9621     1.9152     0.0369 H       
  24 H24            1.2868    -1.7458    -0.0179 H       
  25 H25            3.3585    -0.3839    -0.0370 H       
  26 H26           -2.4779    -4.0196     0.0183 H       
  27 H27           -4.5862    -5.2855     0.0404 H       
  28 H28           -6.7398    -4.0977     0.0816 H       
  29 H29           -6.8004    -1.6387     0.1014 H       
  30 H30           -4.7050    -0.3516     0.0851 H       
  31 H31            4.3167     1.8257     0.0413 H       
  32 H32            5.3021     4.1626    -0.8003 H       
  33 H33            3.6867     6.0672    -1.0743 H       
  34 H34            3.6132     6.2148     0.6980 H       
  35 H35            6.0598     6.6122     0.7664 H       
  36 H36            6.1333     6.4646    -1.0059 H       
  37 H37            4.5743     4.4801     2.1469 H       
  38 H38            5.5334     3.1514     1.4519 H       
  39 H39            6.1688     4.8139     1.4298 H       
  40 H40            4.5891     8.3917    -1.2305 H       
  41 H41            4.5156     8.5393     0.5418 H       
  42 H42            6.0463     8.8441    -0.3139 H       
@<TRIPOS>BOND
   1    1    2 ar
   2    1    6 ar
   3    1   23 1
   4    2    3 ar
   5    2    7 1
   6    3    4 ar
   7    3   24 1
   8    4    5 ar
   9    4   25 1
  10    5    6 ar
  11    5   15 1
  12    7    8 3
  13    8    9 1
  14    9   10 ar
  15    9   14 ar
  16   10   11 ar
  17   10   26 1
  18   11   12 ar
  19   11   27 1
  20   12   13 ar
  21   12   28 1
  22   13   14 ar
  23   13   29 1
  24   14   30 1
  25   15   16 am
  26   15   31 1
  27   16   17 1
  28   16   18 2
  29   17   19 1
  30   17   21 1
  31   17   32 1
  32   19   20 1
  33   19   33 1
  34   19   34 1
  35   20   22 1
  36   20   35 1
  37   20   36 1
  38   21   37 1
  39   21   38 1
  40   21   39 1
  41   22   40 1
  42   22   41 1
  43   22   42 1

#	End of record

