#	Name: ASD01812827
#	Creating user name:	WinNT
#	Creation time:	15. 06. 2019 19:29

#	Modifying user name:	WinNT
#	Modification time:	15. 06. 2019 19:29

#	Program:	/corina/corina34_cracker 3.40 0067  02.08.2006

@<TRIPOS>MOLECULE
ASD01812827
  58   62    0    0    0
SMALL
NO_CHARGES


@<TRIPOS>ATOM
   1 C1            -0.0166     1.3764     0.0096 C.ar    
   2 C2             0.0021    -0.0041     0.0020 C.ar    
   3 C3             1.2089    -0.6872    -0.0127 C.ar    
   4 C4             2.3941     0.0075    -0.0203 C.ar    
   5 C5             2.3941     1.4057    -0.0132 C.ar    
   6 C6             1.1719     2.0915     0.0021 C.ar    
   7 C7             3.8413    -0.4177    -0.0364 C.3     
   8 N8             4.6313     0.8189    -0.0378 N.am    
   9 C9             3.7915     1.8684    -0.0244 C.2     
  10 C10            6.0942     0.8968    -0.0511 C.3     
  11 C11            6.5825     0.9304    -1.4764 C.ar    
  12 C12            6.7421     2.1434    -2.1218 C.ar    
  13 C13            7.1890     2.1798    -3.4272 C.ar    
  14 C14            7.4800     0.9922    -4.0945 C.ar    
  15 C15            7.3179    -0.2266    -3.4397 C.ar    
  16 C16            6.8750    -0.2515    -2.1327 C.ar    
  17 O17            1.1515     3.4479     0.0091 O.3     
  18 O18            4.1370     3.0341    -0.0215 O.2     
  19 C19            7.9606     1.0253    -5.4989 C.2     
  20 C20            8.2755    -0.0561    -6.2690 C.2     
  21 C21            8.1685     2.1784    -6.2805 C.2     
  22 N22            8.5918     1.8001    -7.4575 N.2     
  23 N23            8.6624     0.4019    -7.4766 N.pl3   
  24 C24            9.0882    -0.4212    -8.6113 C.3     
  25 C25            1.1536     4.0901     1.2856 C.3     
  26 C26            1.1288     5.6078     1.0930 C.3     
  27 C27           -1.3335     2.1091     0.0198 C.3     
  28 O28           -0.1181     6.0032     0.5093 O.3     
  29 C29           -0.8273     6.8707     1.4081 C.3     
  30 C30            0.2654     7.5047     2.3051 C.3     
  31 C31            1.2470     6.3114     2.4620 C.3     
  32 H32           -0.9272    -0.5544     0.0079 H       
  33 H33            1.2170    -1.7672    -0.0179 H       
  34 H34            4.0688    -1.0067     0.8521 H       
  35 H35            4.0515    -0.9977    -0.9350 H       
  36 H36            6.4145     1.8024     0.4641 H       
  37 H37            6.5091     0.0250     0.4546 H       
  38 H38            6.5162     3.0636    -1.6034 H       
  39 H39            7.3126     3.1274    -3.9304 H       
  40 H40            7.5421    -1.1503    -3.9526 H       
  41 H41            6.7526    -1.1957    -1.6229 H       
  42 H42            8.2243    -1.0914    -5.9659 H       
  43 H43            8.0064     3.1977    -5.9624 H       
  44 H44            8.2217    -0.6735    -9.2225 H       
  45 H45            9.8080     0.1339    -9.2129 H       
  46 H46            9.5518    -1.3362    -8.2426 H       
  47 H47            0.2733     3.7810     1.8493 H       
  48 H48            2.0530     3.8080     1.8329 H       
  49 H49            1.9524     5.9119     0.4471 H       
  50 H50           -1.6461     2.2802     1.0499 H       
  51 H51           -1.2206     3.0662    -0.4894 H       
  52 H52           -2.0861     1.5109    -0.4937 H       
  53 H53           -1.3545     7.6444     0.8500 H       
  54 H54           -1.5280     6.2963     2.0141 H       
  55 H55            0.7458     8.3453     1.8043 H       
  56 H56           -0.1439     7.8061     3.2693 H       
  57 H57            0.9276     5.6497     3.2672 H       
  58 H58            2.2642     6.6653     2.6298 H       
@<TRIPOS>BOND
   1    1    2 ar
   2    1    6 ar
   3    1   27 1
   4    2    3 ar
   5    2   32 1
   6    3    4 ar
   7    3   33 1
   8    4    7 1
   9    4    5 ar
  10    5    6 ar
  11    5    9 1
  12    6   17 1
  13    7    8 1
  14    7   34 1
  15    7   35 1
  16    8    9 am
  17    8   10 1
  18    9   18 2
  19   10   11 1
  20   10   36 1
  21   10   37 1
  22   11   12 ar
  23   11   16 ar
  24   12   13 ar
  25   12   38 1
  26   13   14 ar
  27   13   39 1
  28   14   15 ar
  29   14   19 1
  30   15   16 ar
  31   15   40 1
  32   16   41 1
  33   17   25 1
  34   19   21 1
  35   19   20 2
  36   20   23 1
  37   20   42 1
  38   21   22 2
  39   21   43 1
  40   22   23 1
  41   23   24 1
  42   24   44 1
  43   24   45 1
  44   24   46 1
  45   25   26 1
  46   25   47 1
  47   25   48 1
  48   26   28 1
  49   26   31 1
  50   26   49 1
  51   27   50 1
  52   27   51 1
  53   27   52 1
  54   28   29 1
  55   29   30 1
  56   29   53 1
  57   29   54 1
  58   30   31 1
  59   30   55 1
  60   30   56 1
  61   31   57 1
  62   31   58 1

#	End of record

