#	Name: ASD02508031
#	Creating user name:	WinNT
#	Creation time:	15. 06. 2019 20:23

#	Modifying user name:	WinNT
#	Modification time:	15. 06. 2019 20:23

#	Program:	/corina/corina34_cracker 3.40 0067  02.08.2006

@<TRIPOS>MOLECULE
ASD02508031
  54   56    0    0    0
SMALL
NO_CHARGES


@<TRIPOS>ATOM
   1 S1             0.0936     1.6560    -0.0108 S.o2    
   2 N2             0.0616     0.0003    -0.0076 N.am    
   3 C3             0.2045    -0.7481     1.2491 C.3     
   4 C4            -0.1162    -0.7468    -1.2606 C.3     
   5 C5            -1.3187    -1.6860    -1.1048 C.3     
   6 N6            -1.1702    -2.4345     0.1512 N.am    
   7 C7            -0.9987    -1.6873     1.3996 C.3     
   8 S8            -1.2033    -4.0902     0.1545 S.o2    
   9 O9            -1.5896    -4.4812     1.4649 O.2     
  10 O10           -1.9125    -4.4797    -1.0136 O.2     
  11 C11           -0.3736     0.2307    -2.4092 C.3     
  12 C12           -2.6093    -0.8653    -1.0640 C.3     
  13 C13            1.7421     2.1451    -0.3953 C.ar    
  14 O14           -0.7134     2.0708    -1.1044 O.2     
  15 O15           -0.1440     2.0645     1.3293 O.2     
  16 C16            2.1144     2.3396    -1.7128 C.ar    
  17 C17            3.4057     2.7230    -2.0176 C.ar    
  18 C18            4.3309     2.9132    -0.9990 C.ar    
  19 C19            3.9535     2.7170     0.3233 C.ar    
  20 C20            2.6590     2.3391     0.6215 C.ar    
  21 C21            0.4549    -4.6454    -0.0618 C.ar    
  22 C22            1.2607    -4.8641     1.0427 C.ar    
  23 C23            2.5632    -5.3001     0.8742 C.ar    
  24 C24            3.0613    -5.5181    -0.4018 C.ar    
  25 C25            2.2530    -5.2987    -1.5074 C.ar    
  26 C26            0.9491    -4.8681    -1.3358 C.ar    
  27 F27            0.1613    -4.6547    -2.4125 F       
  28 F28            0.7754    -4.6512     2.2854 F       
  29 N29            5.6378     3.3005    -1.3038 N.pl3   
  30 O30            4.3404    -5.9459    -0.5687 O.3     
  31 C31            4.7864    -6.1497    -1.9109 C.3     
  32 H32            1.1241    -1.3328     1.2242 H       
  33 H33            0.2329    -0.0526     2.0879 H       
  34 H34            0.7800    -1.3313    -1.4683 H       
  35 H35           -1.3508    -2.3814    -1.9435 H       
  36 H36           -0.8143    -2.3818     2.2193 H       
  37 H37           -1.8977    -1.1060     1.6046 H       
  38 H38            0.4099     0.9884    -2.4239 H       
  39 H39           -0.3725    -0.3114    -3.3548 H       
  40 H40           -1.3414     0.7115    -2.2671 H       
  41 H41           -2.7095    -0.2994    -1.9901 H       
  42 H42           -3.4623    -1.5348    -0.9532 H       
  43 H43           -2.5756    -0.1770    -0.2194 H       
  44 H44            1.3947     2.1912    -2.5042 H       
  45 H45            3.6960     2.8744    -3.0468 H       
  46 H46            4.6703     2.8640     1.1176 H       
  47 H47            2.3648     2.1867     1.6495 H       
  48 H48            3.1917    -5.4702     1.7359 H       
  49 H49            2.6397    -5.4677    -2.5015 H       
  50 H50            5.9002     3.4370    -2.2276 H       
  51 H51            6.2829     3.4330    -0.5917 H       
  52 H52            4.1609    -6.9020    -2.3914 H       
  53 H53            4.7167    -5.2125    -2.4631 H       
  54 H54            5.8219    -6.4899    -1.9019 H       
@<TRIPOS>BOND
   1    1    2 am
   2    1   13 1
   3    1   14 2
   4    1   15 2
   5    2    3 1
   6    2    4 1
   7    3    7 1
   8    3   32 1
   9    3   33 1
  10    4    5 1
  11    4   11 1
  12    4   34 1
  13    5    6 1
  14    5   12 1
  15    5   35 1
  16    6    7 1
  17    6    8 am
  18    7   36 1
  19    7   37 1
  20    8    9 2
  21    8   10 2
  22    8   21 1
  23   11   38 1
  24   11   39 1
  25   11   40 1
  26   12   41 1
  27   12   42 1
  28   12   43 1
  29   13   16 ar
  30   13   20 ar
  31   16   17 ar
  32   16   44 1
  33   17   18 ar
  34   17   45 1
  35   18   19 ar
  36   18   29 1
  37   19   20 ar
  38   19   46 1
  39   20   47 1
  40   21   22 ar
  41   21   26 ar
  42   22   23 ar
  43   22   28 1
  44   23   24 ar
  45   23   48 1
  46   24   25 ar
  47   24   30 1
  48   25   26 ar
  49   25   49 1
  50   26   27 1
  51   29   50 1
  52   29   51 1
  53   30   31 1
  54   31   52 1
  55   31   53 1
  56   31   54 1

#	End of record

