#	Name: ASD03091335
#	Creating user name:	WinNT
#	Creation time:	15. 06. 2019 20:30

#	Modifying user name:	WinNT
#	Modification time:	15. 06. 2019 20:30

#	Program:	/corina/corina34_cracker 3.40 0067  02.08.2006

@<TRIPOS>MOLECULE
ASD03091335
  48   52    0    0    0
SMALL
NO_CHARGES


@<TRIPOS>ATOM
   1 N1            -0.1661     1.4422     0.0306 N.am    
   2 C2            -0.2460     0.1565     0.4936 C.2     
   3 N3            -1.3744    -0.4120     0.8303 N.2     
   4 C4            -2.5510     0.2411     0.7422 C.ar    
   5 C5            -2.5649     1.5748     0.2737 C.ar    
   6 C6            -1.2836     2.1955    -0.0944 C.2     
   7 C7             1.0018    -0.6261     0.6182 C.ar    
   8 O8            -1.2310     3.3406    -0.5042 O.2     
   9 C9            -3.7546    -0.3723     1.1034 C.ar    
  10 C10           -4.9280     0.3178     1.0014 C.ar    
  11 C11           -4.9471     1.6340     0.5397 C.ar    
  12 C12           -3.7702     2.2659     0.1747 C.ar    
  13 N13           -6.1616     2.3189     0.4441 N.3     
  14 C14            1.9792    -0.5495    -0.3752 C.ar    
  15 C15            3.1419    -1.2824    -0.2534 C.ar    
  16 C16            3.3404    -2.0924     0.8501 C.ar    
  17 C17            2.3748    -2.1738     1.8395 C.ar    
  18 C18            1.2100    -1.4404     1.7327 C.ar    
  19 C19            1.1372     2.0082    -0.3259 C.3     
  20 C20           -6.1463     3.2717    -0.6920 C.3     
  21 C21           -7.3498     2.8507    -1.5910 C.3     
  22 N22           -6.9127     1.5568    -2.2039 N.3     
  23 C23           -6.8321     0.5826    -1.0889 C.3     
  24 C24           -7.2907     1.3736     0.1752 C.3     
  25 C25           -5.6118     1.7028    -2.8704 C.3     
  26 C26           -8.3398     2.3391    -0.4841 C.3     
  27 Cl27           2.6329    -3.1938     3.2203 Cl      
  28 H28           -3.7559    -1.3910     1.4622 H       
  29 H29           -5.8542    -0.1619     1.2816 H       
  30 H30           -3.7867     3.2850    -0.1826 H       
  31 H31            1.8256     0.0820    -1.2378 H       
  32 H32            3.8987    -1.2236    -1.0216 H       
  33 H33            4.2522    -2.6642     0.9403 H       
  34 H34            0.4575    -1.5040     2.5048 H       
  35 H35            1.3797     1.7422    -1.3548 H       
  36 H36            1.1006     3.0933    -0.2301 H       
  37 H37            1.9012     1.6101     0.3420 H       
  38 H38           -6.2811     4.2918    -0.3323 H       
  39 H39           -5.2115     3.1853    -1.2459 H       
  40 H40           -7.7231     3.6071    -2.2814 H       
  41 H41           -7.5006    -0.2587    -1.2722 H       
  42 H42           -5.8072     0.2327    -0.9653 H       
  43 H43           -7.6281     0.7754     1.0216 H       
  44 H44           -4.8326     1.8390    -2.1205 H       
  45 H45           -5.4007     0.8076    -3.4554 H       
  46 H46           -5.6369     2.5703    -3.5300 H       
  47 H47           -8.6527     3.1349     0.1919 H       
  48 H48           -9.1901     1.8023    -0.9046 H       
@<TRIPOS>BOND
   1    1    2 1
   2    1   19 1
   3    1    6 am
   4    2    3 2
   5    2    7 1
   6    3    4 1
   7    4    5 ar
   8    4    9 ar
   9    5    6 1
  10    5   12 ar
  11    6    8 2
  12    7   14 ar
  13    7   18 ar
  14    9   10 ar
  15    9   28 1
  16   10   11 ar
  17   10   29 1
  18   11   12 ar
  19   11   13 1
  20   12   30 1
  21   13   20 1
  22   13   24 1
  23   14   15 ar
  24   14   31 1
  25   15   16 ar
  26   15   32 1
  27   16   17 ar
  28   16   33 1
  29   17   18 ar
  30   17   27 1
  31   18   34 1
  32   19   35 1
  33   19   36 1
  34   19   37 1
  35   20   21 1
  36   20   38 1
  37   20   39 1
  38   21   22 1
  39   21   26 1
  40   21   40 1
  41   22   23 1
  42   22   25 1
  43   23   24 1
  44   23   41 1
  45   23   42 1
  46   24   26 1
  47   24   43 1
  48   25   44 1
  49   25   45 1
  50   25   46 1
  51   26   47 1
  52   26   48 1

#	End of record

