#	Name: ASD01900437
#	Creating user name:	WinNT
#	Creation time:	15. 06. 2019 19:51

#	Modifying user name:	WinNT
#	Modification time:	15. 06. 2019 19:51

#	Program:	/corina/corina34_cracker 3.40 0067  02.08.2006

@<TRIPOS>MOLECULE
ASD01900437
  26   28    0    0    0
SMALL
NO_CHARGES


@<TRIPOS>ATOM
   1 C1            -0.0261     1.3950     0.1251 C.ar    
   2 C2             0.0066     0.0005    -0.0661 C.ar    
   3 C3             1.2237    -0.6703     0.0493 C.ar    
   4 C4             2.3512     0.0689     0.3483 C.ar    
   5 C5             2.2454     1.4425     0.5239 C.ar    
   6 N6             1.0910     2.0591     0.4120 N.ar    
   7 N7            -2.1142     0.7224    -0.3296 N.2     
   8 N8            -1.2749    -0.3965    -0.3429 N.pl3   
   9 C9            -1.4234     1.7966    -0.0537 C.2     
  10 N10           -1.9266     3.0976     0.0457 N.pl3   
  11 C11           -3.3024     3.3226    -0.0397 C.ar    
  12 C12           -4.1952     2.3410     0.3729 C.ar    
  13 C13           -5.5561     2.5660     0.2880 C.ar    
  14 C14           -6.0308     3.7678    -0.2076 C.ar    
  15 C15           -5.1439     4.7481    -0.6202 C.ar    
  16 C16           -3.7806     4.5301    -0.5319 C.ar    
  17 F17           -5.6102     5.9201    -1.1040 F       
  18 Cl18          -6.6714     1.3394     0.8030 Cl      
  19 H19            1.2829    -1.7395    -0.0910 H       
  20 H20            3.3100    -0.4186     0.4454 H       
  21 H21            3.1305     2.0154     0.7580 H       
  22 H22           -1.5555    -1.3079    -0.5202 H       
  23 H23           -1.3202     3.8437     0.1740 H       
  24 H24           -3.8257     1.4027     0.7595 H       
  25 H25           -7.0947     3.9414    -0.2731 H       
  26 H26           -3.0889     5.2965    -0.8491 H       
@<TRIPOS>BOND
   1    1    2 ar
   2    1    6 ar
   3    1    9 1
   4    2    3 ar
   5    2    8 1
   6    3    4 ar
   7    3   19 1
   8    4    5 ar
   9    4   20 1
  10    5    6 ar
  11    5   21 1
  12    7    8 1
  13    7    9 2
  14    8   22 1
  15    9   10 1
  16   10   11 1
  17   10   23 1
  18   11   12 ar
  19   11   16 ar
  20   12   13 ar
  21   12   24 1
  22   13   14 ar
  23   13   18 1
  24   14   15 ar
  25   14   25 1
  26   15   16 ar
  27   15   17 1
  28   16   26 1

#	End of record

