#	Name: ASD03092210
#	Creating user name:	WinNT
#	Creation time:	15. 06. 2019 20:32

#	Modifying user name:	WinNT
#	Modification time:	15. 06. 2019 20:32

#	Program:	/corina/corina34_cracker 3.40 0067  02.08.2006

@<TRIPOS>MOLECULE
ASD03092210
  49   51    0    0    0
SMALL
NO_CHARGES


@<TRIPOS>ATOM
   1 N1            -0.5022     1.5163     0.1061 N.pl3   
   2 C2            -0.2388     0.1988     0.2554 C.2     
   3 N3            -1.3841    -0.4519     0.2091 N.2     
   4 C4            -2.3855     0.4120     0.0332 C.2     
   5 N5            -1.8954     1.6286    -0.0299 N.2     
   6 C6             0.4718     2.6105     0.0949 C.3     
   7 C7             0.8934     2.9031    -1.3465 C.3     
   8 O8            -0.2307     3.3902    -2.0820 O.3     
   9 C9             2.0010     3.9587    -1.3495 C.3     
  10 C10            2.5091     4.1607    -2.7785 C.3     
  11 C11            1.0993    -0.4061     0.4377 C.ar    
  12 C12            1.2227    -1.6772     0.9987 C.ar    
  13 C13            2.4733    -2.2360     1.1657 C.ar    
  14 C14            3.6031    -1.5382     0.7784 C.ar    
  15 C15            3.4874    -0.2770     0.2212 C.ar    
  16 C16            2.2424     0.2902     0.0438 C.ar    
  17 N17           -3.7375     0.0769    -0.0628 N.pl3   
  18 C18           -4.1248    -1.2668    -0.0883 C.ar    
  19 C19           -5.3836    -1.6362     0.3672 C.ar    
  20 C20           -5.7655    -2.9638     0.3411 C.ar    
  21 C21           -4.8946    -3.9266    -0.1381 C.ar    
  22 C22           -3.6365    -3.5610    -0.5938 C.ar    
  23 C23           -3.2531    -2.2326    -0.5745 C.ar    
  24 F24           -5.2700    -5.2241    -0.1617 F       
  25 F25           -2.7877    -4.5023    -1.0613 F       
  26 C26            2.6085    -3.6092     1.7717 C.3     
  27 C27            3.6167     5.2162    -2.7816 C.3     
  28 H28            0.0212     3.5025     0.5299 H       
  29 H29            1.3468     2.3240     0.6783 H       
  30 H30            1.2622     1.9882    -1.8101 H       
  31 H31           -0.6115     4.2043    -1.7252 H       
  32 H32            1.6066     4.9003    -0.9676 H       
  33 H33            2.8226     3.6251    -0.7156 H       
  34 H34            2.9035     3.2191    -3.1605 H       
  35 H35            1.6875     4.4943    -3.4124 H       
  36 H36            0.3413    -2.2226     1.3022 H       
  37 H37            4.5798    -1.9796     0.9117 H       
  38 H38            4.3733     0.2628    -0.0792 H       
  39 H39            2.1533     1.2748    -0.3912 H       
  40 H40           -4.4081     0.7760    -0.1118 H       
  41 H41           -6.0639    -0.8858     0.7421 H       
  42 H42           -6.7446    -3.2505     0.6955 H       
  43 H43           -2.2738    -1.9474    -0.9296 H       
  44 H44            2.5788    -4.3595     0.9816 H       
  45 H45            3.5571    -3.6796     2.3040 H       
  46 H46            1.7876    -3.7816     2.4676 H       
  47 H47            3.9786     5.3602    -3.7996 H       
  48 H48            3.2222     6.1579    -2.3996 H       
  49 H49            4.4382     4.8826    -2.1476 H       
@<TRIPOS>BOND
   1    1    2 1
   2    1    6 1
   3    1    5 1
   4    2    3 2
   5    2   11 1
   6    3    4 1
   7    4    5 2
   8    4   17 1
   9    6    7 1
  10    6   28 1
  11    6   29 1
  12    7    8 1
  13    7    9 1
  14    7   30 1
  15    8   31 1
  16    9   10 1
  17    9   32 1
  18    9   33 1
  19   10   27 1
  20   10   34 1
  21   10   35 1
  22   11   12 ar
  23   11   16 ar
  24   12   13 ar
  25   12   36 1
  26   13   14 ar
  27   13   26 1
  28   14   15 ar
  29   14   37 1
  30   15   16 ar
  31   15   38 1
  32   16   39 1
  33   17   18 1
  34   17   40 1
  35   18   19 ar
  36   18   23 ar
  37   19   20 ar
  38   19   41 1
  39   20   21 ar
  40   20   42 1
  41   21   22 ar
  42   21   24 1
  43   22   23 ar
  44   22   25 1
  45   23   43 1
  46   26   44 1
  47   26   45 1
  48   26   46 1
  49   27   47 1
  50   27   48 1
  51   27   49 1

#	End of record

