#	Name: ASD00170124
#	Creating user name:	WinNT
#	Creation time:	15. 06. 2019 18:31

#	Modifying user name:	WinNT
#	Modification time:	15. 06. 2019 18:31

#	Program:	/corina/corina34_cracker 3.40 0067  02.08.2006

@<TRIPOS>MOLECULE
ASD00170124
  33   36    0    0    0
SMALL
NO_CHARGES


@<TRIPOS>ATOM
   1 C1             1.0232     1.5431    -0.7825 C.2     
   2 C2             0.8245     0.0694    -0.6221 C.ar    
   3 C3             2.0612    -0.5666    -0.5866 C.ar    
   4 C4             3.1078     0.5092    -0.7268 C.3     
   5 C5             2.3422     1.8091    -0.8443 C.2     
   6 S6             2.5754     3.5463    -1.0339 S.3     
   7 C7             0.8326     3.7839    -1.0145 C.2     
   8 N8             0.2445     2.6432    -0.8835 N.2     
   9 C9            -0.3465    -0.6840    -0.5123 C.ar    
  10 C10           -0.2718    -2.0516    -0.3696 C.ar    
  11 C11            0.9701    -2.6858    -0.3345 C.ar    
  12 C12            2.1396    -1.9325    -0.4451 C.ar    
  13 N13            0.1907     5.0064    -1.1274 N.pl3   
  14 C14            1.0474    -4.1588    -0.1808 C.ar    
  15 C15            1.7473    -4.7147     0.8885 C.ar    
  16 C16            1.8155    -6.0863     1.0267 C.ar    
  17 C17            1.1910    -6.9087     0.1066 C.ar    
  18 C18            0.4952    -6.3624    -0.9572 C.ar    
  19 C19            0.4155    -4.9925    -1.1022 C.ar    
  20 N20            2.4167    -3.8357     1.8740 N.pl3   
  21 O21            3.1344    -4.3182     2.7316 O.2     
  22 O22            2.2497    -2.6301     1.8270 O.2     
  23 H23            3.7491     0.5280     0.1543 H       
  24 H24            3.7036     0.3406    -1.6238 H       
  25 H25           -1.3090    -0.1947    -0.5389 H       
  26 H26           -1.1770    -2.6346    -0.2843 H       
  27 H27            3.1029    -2.4202    -0.4185 H       
  28 H28            0.7102     5.8196    -1.2265 H       
  29 H29           -0.7781     5.0492    -1.1072 H       
  30 H30            2.3579    -6.5182     1.8548 H       
  31 H31            1.2470    -7.9814     0.2187 H       
  32 H32            0.0098    -7.0093    -1.6729 H       
  33 H33           -0.1282    -4.5671    -1.9328 H       
@<TRIPOS>BOND
   1    1    2 1
   2    1    5 2
   3    1    8 1
   4    2    3 ar
   5    2    9 ar
   6    3    4 1
   7    3   12 ar
   8    4    5 1
   9    4   23 1
  10    4   24 1
  11    5    6 1
  12    6    7 1
  13    7    8 2
  14    7   13 1
  15    9   10 ar
  16    9   25 1
  17   10   11 ar
  18   10   26 1
  19   11   12 ar
  20   11   14 1
  21   12   27 1
  22   13   28 1
  23   13   29 1
  24   14   15 ar
  25   14   19 ar
  26   15   16 ar
  27   15   20 1
  28   16   17 ar
  29   16   30 1
  30   17   18 ar
  31   17   31 1
  32   18   19 ar
  33   18   32 1
  34   19   33 1
  35   20   21 2
  36   20   22 2

#	End of record

