#	Name: ASD05313130
#	Creating user name:	WinNT
#	Creation time:	15. 06. 2019 20:58

#	Modifying user name:	WinNT
#	Modification time:	15. 06. 2019 20:58

#	Program:	/corina/corina34_cracker 3.40 0067  02.08.2006

@<TRIPOS>MOLECULE
ASD05313130
  43   46    0    0    0
SMALL
NO_CHARGES


@<TRIPOS>ATOM
   1 C1            -0.2532     0.9612     1.1347 C.2     
   2 C2            -0.0250    -0.5039     0.8498 C.3     
   3 N3             0.7477     1.8852     1.1864 N.pl3   
   4 N4             1.3726    -0.6410     0.3979 N.am    
   5 C5             2.4131     0.1016     1.1251 C.3     
   6 C6             2.1656     1.6065     0.9662 C.3     
   7 N7            -1.1442     2.8303     1.5752 N.2     
   8 N8            -1.3705     1.5776     1.3742 N.2     
   9 C9             0.1469     3.0724     1.4727 C.2     
  10 C10            0.8151     4.3817     1.6404 C.ar    
  11 C11            2.1100     4.5731     1.1592 C.ar    
  12 C12            2.7291     5.8012     1.3192 C.ar    
  13 C13            2.0615     6.8380     1.9576 C.ar    
  14 C14            0.7782     6.6493     2.4355 C.ar    
  15 C15            0.1498     5.4308     2.2755 C.ar    
  16 O16            3.9909     5.9919     0.8517 O.3     
  17 C17            4.5683     7.2837     1.0512 C.3     
  18 C18            1.6872    -1.4254    -0.6520 C.2     
  19 O19            2.8278    -1.4498    -1.0724 O.2     
  20 C20            0.6468    -2.2550    -1.2917 C.ar    
  21 C21            0.5573    -2.3170    -2.6855 C.ar    
  22 C22           -0.4170    -3.0947    -3.2772 C.ar    
  23 C23           -1.3052    -3.8128    -2.4920 C.ar    
  24 C24           -1.2207    -3.7541    -1.1090 C.ar    
  25 C25           -0.2481    -2.9855    -0.5068 C.ar    
  26 F26           -2.2573    -4.5726    -3.0762 F       
  27 Cl27           1.6690    -1.4174    -3.6696 Cl      
  28 H28           -0.1819    -1.0881     1.7565 H       
  29 H29           -0.7041    -0.8409     0.0666 H       
  30 H30            2.3780    -0.1633     2.1818 H       
  31 H31            3.3922    -0.1512     0.7183 H       
  32 H32            2.4459     1.9172    -0.0403 H       
  33 H33            2.7620     2.1531     1.6966 H       
  34 H34            2.6284     3.7657     0.6635 H       
  35 H35            2.5466     7.7949     2.0815 H       
  36 H36            0.2639     7.4592     2.9315 H       
  37 H37           -0.8547     5.2882     2.6457 H       
  38 H38            3.9554     8.0362     0.5551 H       
  39 H39            4.6157     7.4996     2.1185 H       
  40 H40            5.5744     7.3006     0.6320 H       
  41 H41           -0.4879    -3.1435    -4.3537 H       
  42 H42           -1.9161    -4.3154    -0.5025 H       
  43 H43           -0.1808    -2.9448     0.5703 H       
@<TRIPOS>BOND
   1    1    2 1
   2    1    3 1
   3    1    8 2
   4    2    4 1
   5    2   28 1
   6    2   29 1
   7    3    6 1
   8    3    9 1
   9    4    5 1
  10    4   18 am
  11    5    6 1
  12    5   30 1
  13    5   31 1
  14    6   32 1
  15    6   33 1
  16    7    8 1
  17    7    9 2
  18    9   10 1
  19   10   11 ar
  20   10   15 ar
  21   11   12 ar
  22   11   34 1
  23   12   13 ar
  24   12   16 1
  25   13   14 ar
  26   13   35 1
  27   14   15 ar
  28   14   36 1
  29   15   37 1
  30   16   17 1
  31   17   38 1
  32   17   39 1
  33   17   40 1
  34   18   19 2
  35   18   20 1
  36   20   21 ar
  37   20   25 ar
  38   21   22 ar
  39   21   27 1
  40   22   23 ar
  41   22   41 1
  42   23   24 ar
  43   23   26 1
  44   24   25 ar
  45   24   42 1
  46   25   43 1

#	End of record

