#	Name: ASD02250004
#	Creating user name:	WinNT
#	Creation time:	15. 06. 2019 20:20

#	Modifying user name:	WinNT
#	Modification time:	15. 06. 2019 20:20

#	Program:	/corina/corina34_cracker 3.40 0067  02.08.2006

@<TRIPOS>MOLECULE
ASD02250004
  78   81    0    0    0
SMALL
NO_CHARGES


@<TRIPOS>ATOM
   1 C1             0.7462    -0.3906     0.8602 C.3     
   2 C2             1.1659    -1.8599     0.8373 C.3     
   3 C3             2.1835    -2.1351     1.9466 C.3     
   4 C4             3.3993    -1.2287     1.7531 C.3     
   5 C5             2.9813     0.2375     1.8111 C.3     
   6 C6             1.9683     0.5155     0.7016 C.3     
   7 C7             4.4650    -1.5340     2.8009 C.3     
   8 C8             5.7020    -0.6590     2.5551 C.3     
   9 C9             5.4391     0.2523     1.3569 C.3     
  10 C10            4.2217     1.1293     1.6406 C.3     
  11 C11            6.6334     1.0542     0.9478 C.3     
  12 C12            6.4238     2.5792     1.0681 C.3     
  13 C13            5.2481     3.0024     0.2323 C.3     
  14 C14            3.9972     2.1730     0.5633 C.3     
  15 C15            7.9481     0.8759     1.7208 C.3     
  16 C16            8.8096     2.0272     1.1197 C.3     
  17 C17            7.8062     3.1092     0.6413 C.3     
  18 O18            1.7409    -2.1770    -0.4314 O.3     
  19 O19            6.8139    -1.5154     2.2772 O.3     
  20 C20            7.9091     3.2937    -0.8672 C.3     
  21 C21            7.5868     1.9712    -1.5658 C.3     
  22 C22            7.7014     2.1535    -3.0806 C.3     
  23 C23            7.3840     0.8509    -3.7688 C.2     
  24 N24            7.4218     0.7726    -5.1137 N.am    
  25 O25            7.0946    -0.1270    -3.1123 O.2     
  26 C26            7.1132    -0.4937    -5.7827 C.3     
  27 C27            7.2278    -0.3114    -7.2975 C.3     
  28 C28            6.2506     3.0406     2.5213 C.3     
  29 C29            2.3538     0.5690     3.1685 C.3     
  30 C30            9.3293     3.7303    -1.2320 C.3     
  31 S31            6.8458    -1.8794    -8.1258 S.o2    
  32 O32            5.7114    -2.4943    -7.5306 O.2     
  33 O33            6.9456    -1.7356    -9.5360 O.2     
  34 H34            0.0626    -0.2073     0.0224 H       
  35 H35            0.2197    -0.1681     1.7842 H       
  36 H36            0.2853    -2.4871     0.9970 H       
  37 H37            1.7296    -1.9756     2.9189 H       
  38 H38            2.5065    -3.1796     1.8781 H       
  39 H39            3.8146    -1.4400     0.7583 H       
  40 H40            2.4293     0.3247    -0.2694 H       
  41 H41            1.6495     1.5578     0.7509 H       
  42 H42            4.0849    -1.3617     3.8037 H       
  43 H43            4.7585    -2.5861     2.7152 H       
  44 H44            5.9093    -0.0606     3.4389 H       
  45 H45            5.1847    -0.4048     0.5005 H       
  46 H46            4.3339     1.6145     2.6151 H       
  47 H47            6.8486     0.8152    -0.1180 H       
  48 H48            5.0319     4.0656     0.4091 H       
  49 H49            5.4534     2.8808    -0.8383 H       
  50 H50            3.6592     1.6805    -0.3582 H       
  51 H51            3.1971     2.8554     0.8813 H       
  52 H52            7.8245     0.9837     2.7881 H       
  53 H53            8.4070    -0.0858     1.4761 H       
  54 H54            9.4665     2.4367     1.8843 H       
  55 H55            9.3882     1.6545     0.2765 H       
  56 H56            8.0027     4.0508     1.1562 H       
  57 H57            1.1429    -2.0416    -1.1792 H       
  58 H58            7.0254    -2.1302     2.9930 H       
  59 H59            7.2004     4.0567    -1.1891 H       
  60 H60            8.2904     1.2060    -1.2377 H       
  61 H61            6.5720     1.6643    -1.3126 H       
  62 H62            6.9979     2.9186    -3.4088 H       
  63 H63            8.7162     2.4603    -3.3339 H       
  64 H64            7.6532     1.5547    -5.6388 H       
  65 H65            7.8167    -1.2588    -5.4545 H       
  66 H66            6.0984    -0.8006    -5.5294 H       
  67 H67            6.5243     0.4537    -7.6256 H       
  68 H68            8.2426    -0.0045    -7.5507 H       
  69 H69            7.0620     2.6398     3.1289 H       
  70 H70            6.2704     4.1296     2.5616 H       
  71 H71            5.2965     2.6800     2.9057 H       
  72 H72            3.0783     0.3779     3.9601 H       
  73 H73            2.0633     1.6194     3.1877 H       
  74 H74            1.4732    -0.0544     3.3236 H       
  75 H75           10.0257     2.9205    -1.0141 H       
  76 H76            9.3737     3.9718    -2.2939 H       
  77 H77            9.6004     4.6097    -0.6477 H       
  78 H78            7.8700    -2.6885    -7.8016 H       
@<TRIPOS>BOND
   1    1    2 1
   2    1    6 1
   3    1   34 1
   4    1   35 1
   5    2    3 1
   6    2   18 1
   7    2   36 1
   8    3    4 1
   9    3   37 1
  10    3   38 1
  11    4    5 1
  12    4    7 1
  13    4   39 1
  14    5    6 1
  15    5   29 1
  16    5   10 1
  17    6   40 1
  18    6   41 1
  19    7    8 1
  20    7   42 1
  21    7   43 1
  22    8    9 1
  23    8   19 1
  24    8   44 1
  25    9   10 1
  26    9   11 1
  27    9   45 1
  28   10   14 1
  29   10   46 1
  30   11   12 1
  31   11   15 1
  32   11   47 1
  33   12   13 1
  34   12   28 1
  35   12   17 1
  36   13   14 1
  37   13   48 1
  38   13   49 1
  39   14   50 1
  40   14   51 1
  41   15   16 1
  42   15   52 1
  43   15   53 1
  44   16   17 1
  45   16   54 1
  46   16   55 1
  47   17   20 1
  48   17   56 1
  49   18   57 1
  50   19   58 1
  51   20   21 1
  52   20   30 1
  53   20   59 1
  54   21   22 1
  55   21   60 1
  56   21   61 1
  57   22   23 1
  58   22   62 1
  59   22   63 1
  60   23   24 am
  61   23   25 2
  62   24   26 1
  63   24   64 1
  64   26   27 1
  65   26   65 1
  66   26   66 1
  67   27   31 1
  68   27   67 1
  69   27   68 1
  70   28   69 1
  71   28   70 1
  72   28   71 1
  73   29   72 1
  74   29   73 1
  75   29   74 1
  76   30   75 1
  77   30   76 1
  78   30   77 1
  79   31   32 2
  80   31   33 2
  81   31   78 1

#	End of record

