#	Name: ASD01150526
#	Creating user name:	WinNT
#	Creation time:	15. 06. 2019 19:04

#	Modifying user name:	WinNT
#	Modification time:	15. 06. 2019 19:04

#	Program:	/corina/corina34_cracker 3.40 0067  02.08.2006

@<TRIPOS>MOLECULE
ASD01150526
  49   51    0    0    0
SMALL
NO_CHARGES


@<TRIPOS>ATOM
   1 C1             0.4933     1.3919    -0.9465 C.ar    
   2 C2             0.4639     0.0109    -0.9224 C.ar    
   3 C3             1.9479     0.0102     0.9677 C.ar    
   4 C4             1.9789     1.3966     0.9446 C.ar    
   5 C5             1.2509     2.0887    -0.0132 C.ar    
   6 N6             1.2801     3.4880    -0.0392 N.am    
   7 C7             0.1264     4.1736    -0.1217 C.2     
   8 N8             0.1177     5.5194    -0.1489 N.am    
   9 C9             1.2790     6.2039    -0.0930 C.2     
  10 C10            2.5443     5.4601    -0.0027 C.2     
  11 N11            2.5098     4.1538     0.0269 N.2     
  12 O12            1.2793     7.4207    -0.1175 O.2     
  13 C13           -1.1538     6.2413    -0.2397 C.3     
  14 O14           -0.9269     3.5677    -0.1731 O.2     
  15 C15           -1.6751     6.5169     1.1472 C.ar    
  16 O16            3.7301     6.1204     0.0551 O.3     
  17 C17            4.9130     5.3233     0.1416 C.3     
  18 C18            1.1883    -0.6824     0.0308 C.ar    
  19 C19           -1.3230     7.6854     1.7969 C.ar    
  20 C20           -1.8000     7.9414     3.0703 C.ar    
  21 C21           -2.6334     7.0236     3.6953 C.ar    
  22 C22           -2.9855     5.8514     3.0401 C.ar    
  23 C23           -2.5091     5.6035     1.7648 C.ar    
  24 N24            2.6816    -0.6915     1.9324 N.am    
  25 C25            2.9446    -0.1217     3.1251 C.2     
  26 O26            2.6215     1.0289     3.3320 O.2     
  27 C27            3.6402    -0.9142     4.2018 C.3     
  28 O28           -3.1035     7.2722     4.9472 O.3     
  29 C29           -4.3440     7.9746     5.0467 C.3     
  30 F30           -3.7960     4.9557     3.6452 F       
  31 F31           -1.4548     9.0830     3.7049 F       
  32 F32            1.1574    -2.0329     0.0519 F       
  33 H33           -0.0696     1.9304    -1.6945 H       
  34 H34           -0.1260    -0.5284    -1.6487 H       
  35 H35            2.5683     1.9367     1.6708 H       
  36 H36           -0.9995     7.1844    -0.7639 H       
  37 H37           -1.8771     5.6360    -0.7861 H       
  38 H38            4.8740     4.7118     1.0432 H       
  39 H39            4.9802     4.6767    -0.7333 H       
  40 H40            5.7871     5.9733     0.1810 H       
  41 H41           -0.6747     8.3989     1.3101 H       
  42 H42           -2.7829     4.6919     1.2544 H       
  43 H43            3.0005    -1.5876     1.7421 H       
  44 H44            3.8502    -1.9190     3.8351 H       
  45 H45            4.5754    -0.4220     4.4685 H       
  46 H46            2.9981    -0.9749     5.0805 H       
  47 H47           -4.2481     8.9505     4.5708 H       
  48 H48           -5.1265     7.4026     4.5482 H       
  49 H49           -4.6035     8.1066     6.0971 H       
@<TRIPOS>BOND
   1    1    2 ar
   2    1    5 ar
   3    1   33 1
   4    2   18 ar
   5    2   34 1
   6    3    4 ar
   7    3   24 1
   8    3   18 ar
   9    4    5 ar
  10    4   35 1
  11    5    6 1
  12    6    7 am
  13    6   11 1
  14    7    8 am
  15    7   14 2
  16    8    9 am
  17    8   13 1
  18    9   10 1
  19    9   12 2
  20   10   11 2
  21   10   16 1
  22   13   15 1
  23   13   36 1
  24   13   37 1
  25   15   19 ar
  26   15   23 ar
  27   16   17 1
  28   17   38 1
  29   17   39 1
  30   17   40 1
  31   18   32 1
  32   19   20 ar
  33   19   41 1
  34   20   21 ar
  35   20   31 1
  36   21   22 ar
  37   21   28 1
  38   22   23 ar
  39   22   30 1
  40   23   42 1
  41   24   25 am
  42   24   43 1
  43   25   26 2
  44   25   27 1
  45   27   44 1
  46   27   45 1
  47   27   46 1
  48   28   29 1
  49   29   47 1
  50   29   48 1
  51   29   49 1

#	End of record

