#	Name: ASD03730212
#	Creating user name:	WinNT
#	Creation time:	15. 06. 2019 20:44

#	Modifying user name:	WinNT
#	Modification time:	15. 06. 2019 20:44

#	Program:	/corina/corina34_cracker 3.40 0067  02.08.2006

@<TRIPOS>MOLECULE
ASD03730212
  51   56    0    0    0
SMALL
NO_CHARGES


@<TRIPOS>ATOM
   1 C1            -0.0187     1.5021     0.0185 C.2     
   2 C2             0.0011    -0.0045    -0.0114 C.3     
   3 O3             1.0236     2.1220     0.0366 O.2     
   4 N4            -1.1946     2.1607     0.0195 N.am    
   5 O5             5.2127    -2.5060     1.4049 O.3     
   6 C6             5.5525    -1.2094     1.6543 C.ar    
   7 C7             4.5561    -0.3363     1.2240 C.ar    
   8 C8             3.4549    -1.1885     0.6541 C.3     
   9 C9             3.7936    -2.5925     1.1741 C.3     
  10 O10            7.8831     1.3836     2.9555 O.3     
  11 C11            6.8541     0.6819     2.4042 C.ar    
  12 C12            5.8514     1.5321     1.9549 C.ar    
  13 C13            6.3063     2.9493     2.2432 C.3     
  14 C14            7.8163     2.7503     2.5150 C.3     
  15 C15            4.7102     1.0253     1.3723 C.ar    
  16 C16            6.6974    -0.6904     2.2457 C.ar    
  17 N17            1.3886    -0.4747    -0.0131 N.am    
  18 C18            2.0948    -0.7389     1.1042 C.2     
  19 C19            3.4130    -1.1427    -0.8446 C.ar    
  20 C20            4.3286    -1.4330    -1.8312 C.ar    
  21 C21            3.9819    -1.2884    -3.1627 C.ar    
  22 C22            2.7140    -0.8511    -3.5003 C.ar    
  23 C23            1.7934    -0.5588    -2.5157 C.ar    
  24 C24            2.1334    -0.7022    -1.1727 C.ar    
  25 O25            1.7074    -0.6346     2.2488 O.2     
  26 C26           -1.2153     3.5564     0.1329 C.ar    
  27 C27           -2.3326     4.1965     0.6587 C.ar    
  28 C28           -2.3489     5.5747     0.7689 C.ar    
  29 C29           -1.2559     6.3153     0.3567 C.ar    
  30 C30           -0.1445     5.6810    -0.1662 C.ar    
  31 C31           -0.1190     4.3036    -0.2739 C.ar    
  32 F32           -3.4003     3.4729     1.0609 F       
  33 H33           -0.5129    -0.3921     0.8682 H       
  34 H34           -0.5030    -0.3567    -0.9114 H       
  35 H35           -2.0265     1.6680    -0.0584 H       
  36 H36            3.5692    -3.3486     0.4217 H       
  37 H37            3.2624    -2.7998     2.1031 H       
  38 H38            6.1477     3.5930     1.3780 H       
  39 H39            5.8015     3.3493     3.1225 H       
  40 H40            8.1598     3.4257     3.2985 H       
  41 H41            8.3948     2.8905     1.6019 H       
  42 H42            3.9355     1.6960     1.0312 H       
  43 H43            7.4736    -1.3598     2.5862 H       
  44 H44            5.3182    -1.7742    -1.5653 H       
  45 H45            4.6999    -1.5161    -3.9367 H       
  46 H46            2.4435    -0.7381    -4.5398 H       
  47 H47            0.8056    -0.2169    -2.7871 H       
  48 H48           -3.2158     6.0733     1.1767 H       
  49 H49           -1.2709     7.3917     0.4433 H       
  50 H50            0.7070     6.2627    -0.4870 H       
  51 H51            0.7519     3.8092    -0.6783 H       
@<TRIPOS>BOND
   1    1    2 1
   2    1    3 2
   3    1    4 am
   4    2   17 1
   5    2   33 1
   6    2   34 1
   7    4   26 1
   8    4   35 1
   9    5    6 1
  10    5    9 1
  11    6    7 ar
  12    6   16 ar
  13    7    8 1
  14    7   15 ar
  15    8    9 1
  16    8   18 1
  17    8   19 1
  18    9   36 1
  19    9   37 1
  20   10   11 1
  21   10   14 1
  22   11   12 ar
  23   11   16 ar
  24   12   13 1
  25   12   15 ar
  26   13   14 1
  27   13   38 1
  28   13   39 1
  29   14   40 1
  30   14   41 1
  31   15   42 1
  32   16   43 1
  33   17   18 am
  34   17   24 1
  35   18   25 2
  36   19   20 ar
  37   19   24 ar
  38   20   21 ar
  39   20   44 1
  40   21   22 ar
  41   21   45 1
  42   22   23 ar
  43   22   46 1
  44   23   24 ar
  45   23   47 1
  46   26   27 ar
  47   26   31 ar
  48   27   28 ar
  49   27   32 1
  50   28   29 ar
  51   28   48 1
  52   29   30 ar
  53   29   49 1
  54   30   31 ar
  55   30   50 1
  56   31   51 1

#	End of record

