#	Name: ASD01000160
#	Creating user name:	WinNT
#	Creation time:	15. 06. 2019 18:54

#	Modifying user name:	WinNT
#	Modification time:	15. 06. 2019 18:54

#	Program:	/corina/corina34_cracker 3.40 0067  02.08.2006

@<TRIPOS>MOLECULE
ASD01000160
  53   56    0    0    0
SMALL
NO_CHARGES


@<TRIPOS>ATOM
   1 C1            -0.4870     1.4033     0.2638 C.ar    
   2 C2            -1.7141    -1.1612     1.4419 C.ar    
   3 C3             0.0011     0.0063     0.0098 C.3     
   4 C4            -1.3288     4.0056     0.7487 C.ar    
   5 C5            -2.2614     3.0017     0.6084 C.ar    
   6 C6            -1.8467     1.6855     0.3593 C.ar    
   7 C7             0.4382     2.4211     0.4098 C.ar    
   8 C8             0.0210     3.7167     0.6508 C.ar    
   9 C9            -2.0282    -2.0032     2.5185 C.ar    
  10 C10           -1.0222    -2.5707     3.2688 C.ar    
  11 C11            0.3021    -2.3110     2.9626 C.ar    
  12 C12            0.6202    -1.4804     1.9045 C.ar    
  13 C13           -0.3794    -0.9016     1.1438 C.ar    
  14 C14           -0.6119    -0.5096    -1.2666 C.ar    
  15 C15           -0.5641    -1.8603    -1.5584 C.ar    
  16 C16           -1.1253    -2.3357    -2.7278 C.ar    
  17 C17           -1.7371    -1.4567    -3.6097 C.ar    
  18 C18           -1.7836    -0.1019    -3.3146 C.ar    
  19 C19           -1.2260     0.3677    -2.1411 C.ar    
  20 S20            1.8071     0.0254    -0.1594 S.3     
  21 C21            2.0641     0.9754    -1.6832 C.3     
  22 C22            3.5623     1.1993    -1.8980 C.3     
  23 C23            3.7759     1.9886    -3.1639 C.2     
  24 N24            4.1146     1.9433    -0.7580 N.3     
  25 O25            3.7315     1.3715    -4.3551 O.3     
  26 O26            3.9871     3.1768    -3.1066 O.2     
  27 C27           -2.8609     0.6417     0.1953 C.2     
  28 C28           -2.8009    -0.5838     0.6648 C.2     
  29 O29           -2.2894    -1.9219    -4.7610 O.3     
  30 C30           -2.9024    -0.9597    -5.6215 C.3     
  31 H31           -1.6512     5.0184     0.9401 H       
  32 H32           -3.3142     3.2295     0.6861 H       
  33 H33            1.4932     2.2021     0.3354 H       
  34 H34            0.7500     4.5062     0.7586 H       
  35 H35           -3.0610    -2.2068     2.7599 H       
  36 H36           -1.2672    -3.2188     4.0973 H       
  37 H37            1.0890    -2.7586     3.5516 H       
  38 H38            1.6557    -1.2819     1.6705 H       
  39 H39           -0.0874    -2.5442    -0.8718 H       
  40 H40           -1.0874    -3.3908    -2.9555 H       
  41 H41           -2.2593     0.5844    -3.9995 H       
  42 H42           -1.2662     1.4216    -1.9086 H       
  43 H43            1.6543     0.4234    -2.5290 H       
  44 H44            1.5610     1.9388    -1.6000 H       
  45 H45            4.0654     0.2359    -1.9812 H       
  46 H46            5.1144     2.0480    -0.8448 H       
  47 H47            3.6642     2.8408    -0.6596 H       
  48 H48            3.8744     1.9194    -5.1389 H       
  49 H49           -3.7449     0.9054    -0.3663 H       
  50 H50           -3.6403    -1.2289     0.4511 H       
  51 H51           -2.1605    -0.2229    -5.9294 H       
  52 H52           -3.3024    -1.4624    -6.5020 H       
  53 H53           -3.7118    -0.4598    -5.0894 H       
@<TRIPOS>BOND
   1    1    3 1
   2    1    7 ar
   3    1    6 ar
   4    2    9 ar
   5    2   13 ar
   6    2   28 1
   7    3   14 1
   8    3   20 1
   9    3   13 1
  10    4    5 ar
  11    4    8 ar
  12    4   31 1
  13    5    6 ar
  14    5   32 1
  15    6   27 1
  16    7    8 ar
  17    7   33 1
  18    8   34 1
  19    9   10 ar
  20    9   35 1
  21   10   11 ar
  22   10   36 1
  23   11   12 ar
  24   11   37 1
  25   12   13 ar
  26   12   38 1
  27   14   15 ar
  28   14   19 ar
  29   15   16 ar
  30   15   39 1
  31   16   17 ar
  32   16   40 1
  33   17   18 ar
  34   17   29 1
  35   18   19 ar
  36   18   41 1
  37   19   42 1
  38   20   21 1
  39   21   22 1
  40   21   43 1
  41   21   44 1
  42   22   23 1
  43   22   24 1
  44   22   45 1
  45   23   25 1
  46   23   26 2
  47   24   46 1
  48   24   47 1
  49   25   48 1
  50   27   28 2
  51   27   49 1
  52   28   50 1
  53   29   30 1
  54   30   51 1
  55   30   52 1
  56   30   53 1

#	End of record

