#	Name: ASD01148879
#	Creating user name:	WinNT
#	Creation time:	15. 06. 2019 19:03

#	Modifying user name:	WinNT
#	Modification time:	15. 06. 2019 19:03

#	Program:	/corina/corina34_cracker 3.40 0067  02.08.2006

@<TRIPOS>MOLECULE
ASD01148879
  39   41    0    0    0
SMALL
NO_CHARGES


@<TRIPOS>ATOM
   1 N1            -0.0017     1.3230     0.2939 N.pl3   
   2 C2             0.0057    -0.0072    -0.0481 C.2     
   3 C3             1.2921    -0.3602    -0.3260 C.2     
   4 C4             2.0886     0.7834    -0.1490 C.2     
   5 C5             1.2778     1.7953     0.2285 C.2     
   6 C6             1.7117     3.2073     0.5268 C.3     
   7 C7            -1.1332     2.0713     0.6451 C.ar    
   8 C8            -1.2815     2.5403     1.9435 C.ar    
   9 C9            -2.3980     3.2775     2.2866 C.ar    
  10 C10           -3.3676     3.5482     1.3387 C.ar    
  11 C11           -3.2230     3.0821     0.0449 C.ar    
  12 C12           -2.1056     2.3500    -0.3060 C.ar    
  13 S13           -4.7907     4.4886     1.7805 S.o2    
  14 O14           -5.7893     4.0655     0.8622 O.2     
  15 O15           -4.9379     4.2668     3.1763 O.2     
  16 C16           -4.3153     6.2088     1.4559 C.3     
  17 C17           -1.1728    -0.8979    -0.1047 C.ar    
  18 C18           -2.3396    -0.5607     0.5832 C.ar    
  19 C19           -3.4360    -1.3959     0.5267 C.ar    
  20 C20           -3.3805    -2.5669    -0.2102 C.ar    
  21 C21           -2.2258    -2.9068    -0.8947 C.ar    
  22 C22           -1.1251    -2.0766    -0.8508 C.ar    
  23 Cl23          -4.7641    -3.6135    -0.2756 Cl      
  24 H24            1.6359    -1.3387    -0.6269 H       
  25 H25            3.1578     0.8427    -0.2895 H       
  26 H26            1.9598     3.2955     1.5845 H       
  27 H27            2.5877     3.4527    -0.0736 H       
  28 H28            0.9014     3.8951     0.2851 H       
  29 H29           -0.5249     2.3286     2.6844 H       
  30 H30           -2.5139     3.6426     3.2964 H       
  31 H31           -3.9823     3.2945    -0.6931 H       
  32 H32           -1.9908     1.9903    -1.3178 H       
  33 H33           -4.0630     6.3233     0.4017 H       
  34 H34           -5.1465     6.8686     1.7043 H       
  35 H35           -3.4505     6.4682     2.0666 H       
  36 H36           -2.3837     0.3520     1.1588 H       
  37 H37           -4.3394    -1.1360     1.0585 H       
  38 H38           -2.1885    -3.8215    -1.4677 H       
  39 H39           -0.2265    -2.3405    -1.3887 H       
@<TRIPOS>BOND
   1    1    2 1
   2    1    5 1
   3    1    7 1
   4    2    3 2
   5    2   17 1
   6    3    4 1
   7    3   24 1
   8    4    5 2
   9    4   25 1
  10    5    6 1
  11    6   26 1
  12    6   27 1
  13    6   28 1
  14    7    8 ar
  15    7   12 ar
  16    8    9 ar
  17    8   29 1
  18    9   10 ar
  19    9   30 1
  20   10   11 ar
  21   10   13 1
  22   11   12 ar
  23   11   31 1
  24   12   32 1
  25   13   14 2
  26   13   15 2
  27   13   16 1
  28   16   33 1
  29   16   34 1
  30   16   35 1
  31   17   18 ar
  32   17   22 ar
  33   18   19 ar
  34   18   36 1
  35   19   20 ar
  36   19   37 1
  37   20   21 ar
  38   20   23 1
  39   21   22 ar
  40   21   38 1
  41   22   39 1

#	End of record

