#	Name: ASD03092773
#	Creating user name:	WinNT
#	Creation time:	15. 06. 2019 20:33

#	Modifying user name:	WinNT
#	Modification time:	15. 06. 2019 20:33

#	Program:	/corina/corina34_cracker 3.40 0067  02.08.2006

@<TRIPOS>MOLECULE
ASD03092773
  43   45    0    0    0
SMALL
NO_CHARGES


@<TRIPOS>ATOM
   1 C1            -0.2937     1.4135     0.6383 C.3     
   2 C2            -0.0432     0.0328     0.0284 C.3     
   3 C3            -1.2817    -0.6839    -0.5133 C.3     
   4 C4             1.2787    -0.1837    -0.7108 C.3     
   5 H5             1.9700     0.6575    -0.7627 H       
   6 C6             1.0530    -0.8292     0.6579 C.3     
   7 H7             0.8921    -1.9069     0.6857 H       
   8 C8             1.8034    -0.2533     1.8311 C.ar    
   9 C9             2.5109     0.9256     1.6877 C.ar    
  10 C10            3.1992     1.4539     2.7638 C.ar    
  11 C11            3.1796     0.8035     3.9835 C.ar    
  12 C12            2.4713    -0.3749     4.1271 C.ar    
  13 C13            1.7795    -0.9009     3.0521 C.ar    
  14 S14            4.0578     1.4763     5.3549 S.o2    
  15 N15            3.0181     2.4868     6.1548 N.am    
  16 O16            4.3197     0.3916     6.2348 O.2     
  17 O17            5.0799     2.3005     4.8115 O.2     
  18 C18            1.2615    -1.0861    -1.9176 C.2     
  19 O19            1.5628    -2.2554    -1.8047 O.2     
  20 N20            0.9111    -0.5937    -3.1223 N.am    
  21 C21            0.9907    -1.4026    -4.2566 C.ar    
  22 C22            0.7180    -2.7676    -4.1819 C.ar    
  23 C23            0.8079    -3.5327    -5.3263 C.ar    
  24 N24            1.1466    -2.9878    -6.4795 N.ar    
  25 C25            1.4123    -1.7000    -6.5909 C.ar    
  26 C26            1.3393    -0.8655    -5.4948 C.ar    
  27 H27            0.6158     2.0105     0.5718 H       
  28 H28           -1.0957     1.9113     0.0932 H       
  29 H29           -0.5798     1.3022     1.6842 H       
  30 H30           -1.7531    -0.0668    -1.2782 H       
  31 H31           -0.9876    -1.6394    -0.9477 H       
  32 H32           -1.9866    -0.8562     0.3000 H       
  33 H33            2.5262     1.4337     0.7348 H       
  34 H34            3.7525     2.3745     2.6516 H       
  35 H35            2.4563    -0.8832     5.0799 H       
  36 H36            1.2231    -1.8196     3.1653 H       
  37 H37            2.1117     2.6059     5.8304 H       
  38 H38            3.3154     2.9597     6.9479 H       
  39 H39            0.6037     0.3229    -3.2009 H       
  40 H40            0.4406    -3.2199    -3.2413 H       
  41 H41            0.5987    -4.5912    -5.2777 H       
  42 H42            1.6859    -1.2934    -7.5533 H       
  43 H43            1.5534     0.1884    -5.5938 H       
@<TRIPOS>BOND
   1    1    2 1
   2    1   27 1
   3    1   28 1
   4    1   29 1
   5    2    6 1
   6    2    3 1
   7    2    4 1
   8    3   30 1
   9    3   31 1
  10    3   32 1
  11    4    5 1
  12    4    6 1
  13    4   18 1
  14    6    7 1
  15    6    8 1
  16    8   13 ar
  17    8    9 ar
  18    9   10 ar
  19    9   33 1
  20   10   11 ar
  21   10   34 1
  22   11   12 ar
  23   11   14 1
  24   12   13 ar
  25   12   35 1
  26   13   36 1
  27   14   15 am
  28   14   16 2
  29   14   17 2
  30   15   37 1
  31   15   38 1
  32   18   19 2
  33   18   20 am
  34   20   21 1
  35   20   39 1
  36   21   26 ar
  37   21   22 ar
  38   22   23 ar
  39   22   40 1
  40   23   24 ar
  41   23   41 1
  42   24   25 ar
  43   25   26 ar
  44   25   42 1
  45   26   43 1

#	End of record

