#	Name: ASD01913498
#	Creating user name:	WinNT
#	Creation time:	15. 06. 2019 20:01

#	Modifying user name:	WinNT
#	Modification time:	15. 06. 2019 20:01

#	Program:	/corina/corina34_cracker 3.40 0067  02.08.2006

@<TRIPOS>MOLECULE
ASD01913498
  39   41    0    0    0
SMALL
NO_CHARGES


@<TRIPOS>ATOM
   1 C1            -0.0975    -0.6756    -2.0374 C.ar    
   2 C2            -0.7294    -0.0151    -0.9866 C.ar    
   3 C3            -0.6755     1.3762    -0.9549 C.ar    
   4 N4            -0.0308     2.0152    -1.9169 N.ar    
   5 C5             0.5547     1.3532    -2.8946 C.ar    
   6 N6             0.5264     0.0372    -2.9604 N.ar    
   7 C7            -1.4545    -2.1203    -0.0469 C.ar    
   8 C8            -0.3058    -2.8894     0.1488 C.ar    
   9 C9            -0.3982    -4.2633     0.0910 C.ar    
  10 N10           -1.5536    -4.8563    -0.1464 N.ar    
  11 C11           -2.6676    -4.1647    -0.3378 C.ar    
  12 C12           -2.6563    -2.7783    -0.2946 C.ar    
  13 N13           -3.8627    -4.8371    -0.5856 N.am    
  14 C14           -3.8630    -6.1759    -0.7410 C.2     
  15 N15           -1.4006    -0.7299     0.0099 N.pl3   
  16 C16           -5.1100    -6.8764    -1.1145 C.ar    
  17 O17           -2.8379    -6.8073    -0.5741 O.2     
  18 C18           -6.2889    -6.1523    -1.3067 C.ar    
  19 C19           -7.4547    -6.8048    -1.6561 C.ar    
  20 C20           -7.4642    -8.1758    -1.8174 C.ar    
  21 C21           -6.2920    -8.9128    -1.6278 C.ar    
  22 C22           -5.1107    -8.2598    -1.2812 C.ar    
  23 C23           -6.3035   -10.3350    -1.7950 C.1     
  24 C24           -2.0474    -0.0163     1.1138 C.3     
  25 N25           -6.3125   -11.4632    -1.9277 N.1     
  26 H26           -0.1129    -1.7540    -2.0953 H       
  27 H27           -1.1532     1.9252    -0.1569 H       
  28 H28            1.0727     1.9055    -3.6648 H       
  29 H29            0.6440    -2.4134     0.3429 H       
  30 H30            0.4871    -4.8633     0.2416 H       
  31 H31           -3.5661    -2.2176    -0.4507 H       
  32 H32           -4.6944    -4.3416    -0.6462 H       
  33 H33           -6.2887    -5.0795    -1.1814 H       
  34 H34           -8.3634    -6.2400    -1.8034 H       
  35 H35           -8.3794    -8.6799    -2.0904 H       
  36 H36           -4.2019    -8.8244    -1.1338 H       
  37 H37           -3.0770     0.2166     0.8423 H       
  38 H38           -2.0397    -0.6430     2.0056 H       
  39 H39           -1.5066     0.9085     1.3150 H       
@<TRIPOS>BOND
   1    1    2 ar
   2    1    6 ar
   3    1   26 1
   4    2    3 ar
   5    2   15 1
   6    3    4 ar
   7    3   27 1
   8    4    5 ar
   9    5    6 ar
  10    5   28 1
  11    7    8 ar
  12    7   12 ar
  13    7   15 1
  14    8    9 ar
  15    8   29 1
  16    9   10 ar
  17    9   30 1
  18   10   11 ar
  19   11   12 ar
  20   11   13 1
  21   12   31 1
  22   13   14 am
  23   13   32 1
  24   14   16 1
  25   14   17 2
  26   15   24 1
  27   16   18 ar
  28   16   22 ar
  29   18   19 ar
  30   18   33 1
  31   19   20 ar
  32   19   34 1
  33   20   21 ar
  34   20   35 1
  35   21   22 ar
  36   21   23 1
  37   22   36 1
  38   23   25 3
  39   24   37 1
  40   24   38 1
  41   24   39 1

#	End of record

