#	Name: ASD01912526
#	Creating user name:	WinNT
#	Creation time:	15. 06. 2019 19:59

#	Modifying user name:	WinNT
#	Modification time:	15. 06. 2019 19:59

#	Program:	/corina/corina34_cracker 3.40 0067  02.08.2006

@<TRIPOS>MOLECULE
ASD01912526
  65   68    0    0    0
SMALL
NO_CHARGES


@<TRIPOS>ATOM
   1 C1            -0.0166     1.3758     0.0096 C.ar    
   2 C2             0.0021    -0.0041     0.0020 C.ar    
   3 C3            -1.1960    -0.7150     0.0101 C.ar    
   4 C4            -2.4087    -0.0287     0.0258 C.ar    
   5 C5            -2.4183     1.3508     0.0333 C.ar    
   6 C6            -1.2243     2.0540     0.0306 C.ar    
   7 C7            -1.1807    -2.1991     0.0015 C.2     
   8 N8            -0.1086    -2.9624    -0.0133 N.2     
   9 C9            -2.3110    -3.0394     0.0138 C.2     
  10 C10           -1.8762    -4.3183     0.0000 C.2     
  11 N11           -0.5261    -4.2994    -0.0168 N.pl3   
  12 C12           -2.7450    -5.5496     0.0066 C.3     
  13 C13            0.3500    -5.4735    -0.0352 C.3     
  14 C14            0.6325    -5.8672    -1.4621 C.2     
  15 N15            1.4217    -6.9276    -1.7250 N.am    
  16 O16            0.1496    -5.2298    -2.3740 O.2     
  17 C17            1.7103    -7.3290    -3.1102 C.3     
  18 C18            2.0223    -7.7104    -0.6342 C.3     
  19 C19            3.5268    -7.8361    -0.8964 C.3     
  20 N20            3.7420    -8.3810    -2.2435 N.3     
  21 C21            3.2278    -7.4705    -3.2699 C.3     
  22 C22            5.0829    -8.6614    -2.4578 C.ar    
  23 N23            5.4589    -9.1616    -3.6249 N.ar    
  24 N24            5.9554    -8.4171    -1.4920 N.ar    
  25 C25            7.2424    -8.6723    -1.6614 C.ar    
  26 C26            7.6735    -9.2031    -2.8717 C.ar    
  27 C27            6.7297    -9.4411    -3.8642 C.ar    
  28 C28           -3.1635    -5.8863    -1.4261 C.3     
  29 F29           -1.2382     3.4049     0.0384 F       
  30 C30           -3.9406    -7.2042    -1.4341 C.3     
  31 C31           -4.0513    -4.7673    -1.9743 C.3     
  32 C32            1.2787     2.1460     0.0014 C.3     
  33 O33            8.9890    -9.4782    -3.0819 O.3     
  34 C34            9.3427   -10.0220    -4.3552 C.3     
  35 H35            0.9441    -0.5321    -0.0105 H       
  36 H36           -3.3397    -0.5760     0.0318 H       
  37 H37           -3.3577     1.8835     0.0452 H       
  38 H38           -3.3420    -2.7184     0.0317 H       
  39 H39           -2.1871    -6.3858     0.4281 H       
  40 H40           -3.6333    -5.3643     0.6105 H       
  41 H41            1.2869    -5.2356     0.4684 H       
  42 H42           -0.1396    -6.3002     0.4797 H       
  43 H43            1.2292    -8.2837    -3.3226 H       
  44 H44            1.3392    -6.5680    -3.7967 H       
  45 H45            1.8574    -7.2016     0.3155 H       
  46 H46            1.5717    -8.7025    -0.6044 H       
  47 H47            3.9922    -6.8532    -0.8230 H       
  48 H48            3.9700    -8.5048    -0.1585 H       
  49 H49            3.4493    -7.8738    -4.2580 H       
  50 H50            3.7010    -6.4946    -3.1606 H       
  51 H51            7.9489    -8.4704    -0.8699 H       
  52 H52            7.0293    -9.8528    -4.8166 H       
  53 H53           -2.2754    -5.9843    -2.0504 H       
  54 H54           -4.8287    -7.1061    -0.8097 H       
  55 H55           -4.2387    -7.4440    -2.4547 H       
  56 H56           -3.3081    -8.0013    -1.0435 H       
  57 H57           -4.3494    -5.0071    -2.9950 H       
  58 H58           -4.9394    -4.6693    -1.3500 H       
  59 H59           -3.4977    -3.8284    -1.9686 H       
  60 H60            1.5812     2.3372    -1.0282 H       
  61 H61            1.1412     3.0939     0.5216 H       
  62 H62            2.0507     1.5639     0.5047 H       
  63 H63           10.4184   -10.1942    -4.3905 H       
  64 H64            8.8185   -10.9657    -4.5055 H       
  65 H65            9.0610    -9.3207    -5.1406 H       
@<TRIPOS>BOND
   1    1    2 ar
   2    1   32 1
   3    1    6 ar
   4    2    3 ar
   5    2   35 1
   6    3    4 ar
   7    3    7 1
   8    4    5 ar
   9    4   36 1
  10    5    6 ar
  11    5   37 1
  12    6   29 1
  13    7    8 2
  14    7    9 1
  15    8   11 1
  16    9   10 2
  17    9   38 1
  18   10   11 1
  19   10   12 1
  20   11   13 1
  21   12   28 1
  22   12   39 1
  23   12   40 1
  24   13   14 1
  25   13   41 1
  26   13   42 1
  27   14   15 am
  28   14   16 2
  29   15   17 1
  30   15   18 1
  31   17   21 1
  32   17   43 1
  33   17   44 1
  34   18   19 1
  35   18   45 1
  36   18   46 1
  37   19   20 1
  38   19   47 1
  39   19   48 1
  40   20   21 1
  41   20   22 1
  42   21   49 1
  43   21   50 1
  44   22   23 ar
  45   22   24 ar
  46   23   27 ar
  47   24   25 ar
  48   25   26 ar
  49   25   51 1
  50   26   27 ar
  51   26   33 1
  52   27   52 1
  53   28   30 1
  54   28   31 1
  55   28   53 1
  56   30   54 1
  57   30   55 1
  58   30   56 1
  59   31   57 1
  60   31   58 1
  61   31   59 1
  62   32   60 1
  63   32   61 1
  64   32   62 1
  65   33   34 1
  66   34   63 1
  67   34   64 1
  68   34   65 1

#	End of record

