#	Name: ASD00170266
#	Creating user name:	WinNT
#	Creation time:	15. 06. 2019 18:31

#	Modifying user name:	WinNT
#	Modification time:	15. 06. 2019 18:31

#	Program:	/corina/corina34_cracker 3.40 0067  02.08.2006

@<TRIPOS>MOLECULE
ASD00170266
  32   34    0    0    0
SMALL
NO_CHARGES


@<TRIPOS>ATOM
   1 C1            -0.5769     0.4406     1.1784 C.2     
   2 C2             0.0061     0.0014     0.0189 C.2     
   3 C3            -0.7252     0.3850    -1.1852 C.ar    
   4 C4            -1.8729     1.1242    -0.8950 C.ar    
   5 S5            -2.0460     1.3345     0.8407 S.3     
   6 C6            -0.4395     0.1196    -2.5411 C.ar    
   7 C7            -1.2815     0.5873    -3.5058 C.ar    
   8 N8            -2.3602     1.2850    -3.1952 N.ar    
   9 C9            -2.6757     1.5622    -1.9485 C.ar    
  10 N10           -0.0794     0.2066     2.4379 N.pl3   
  11 C11            1.2051    -0.7530    -0.0091 C.2     
  12 C12            2.5080    -0.0657    -0.1267 C.ar    
  13 O13            1.1620    -1.9684     0.0639 O.2     
  14 C14            3.6955    -0.7956    -0.0356 C.ar    
  15 C15            4.9078    -0.1514    -0.1457 C.ar    
  16 C16            4.9507     1.2230    -0.3472 C.ar    
  17 C17            3.7714     1.9527    -0.4384 C.ar    
  18 C18            2.5551     1.3148    -0.3350 C.ar    
  19 O19            6.1474     1.8544    -0.4548 O.3     
  20 C20            6.1188     3.2682    -0.6611 C.3     
  21 H21            0.4382    -0.4483    -2.8122 H       
  22 H22           -1.0627     0.3842    -4.5437 H       
  23 H23           -3.5667     2.1351    -1.7381 H       
  24 H24            0.6956    -0.3649     2.5548 H       
  25 H25           -0.5033     0.6129     3.2100 H       
  26 H26            3.6630    -1.8637     0.1213 H       
  27 H27            5.8264    -0.7150    -0.0750 H       
  28 H28            3.8087     3.0207    -0.5946 H       
  29 H29            1.6390     1.8824    -0.4064 H       
  30 H30            5.5866     3.4896    -1.5862 H       
  31 H31            5.6091     3.7471     0.1749 H       
  32 H32            7.1389     3.6461    -0.7293 H       
@<TRIPOS>BOND
   1    1    2 2
   2    1   10 1
   3    1    5 1
   4    2    3 1
   5    2   11 1
   6    3    4 ar
   7    3    6 ar
   8    4    5 1
   9    4    9 ar
  10    6    7 ar
  11    6   21 1
  12    7    8 ar
  13    7   22 1
  14    8    9 ar
  15    9   23 1
  16   10   24 1
  17   10   25 1
  18   11   12 1
  19   11   13 2
  20   12   14 ar
  21   12   18 ar
  22   14   15 ar
  23   14   26 1
  24   15   16 ar
  25   15   27 1
  26   16   17 ar
  27   16   19 1
  28   17   18 ar
  29   17   28 1
  30   18   29 1
  31   19   20 1
  32   20   30 1
  33   20   31 1
  34   20   32 1

#	End of record

