#	Name: ASD02440015
#	Creating user name:	WinNT
#	Creation time:	15. 06. 2019 20:21

#	Modifying user name:	WinNT
#	Modification time:	15. 06. 2019 20:21

#	Program:	/corina/corina34_cracker 3.40 0067  02.08.2006

@<TRIPOS>MOLECULE
ASD02440015
  86   90    0    0    0
SMALL
NO_CHARGES


@<TRIPOS>ATOM
   1 C1             1.5080     2.8974     0.3428 C.3     
   2 C2             0.6983     1.7204    -0.1916 C.3     
   3 C3             0.7016     0.5479     0.7958 C.3     
   4 C4             2.1105     0.2043     1.2275 C.3     
   5 C5             2.9602     1.3752     1.7064 C.3     
   6 C6             2.9453     2.4614     0.6135 C.3     
   7 C7             2.1662    -0.9224     2.2567 C.3     
   8 C8             3.6071    -1.4629     2.2478 C.3     
   9 C9             4.5870    -0.3744     2.6762 C.3     
  10 C10            4.4072     0.9013     1.8631 C.3     
  11 C11            6.0290    -0.8656     2.5343 C.3     
  12 C12            7.0215     0.2663     2.5726 C.2     
  13 C13            6.6972     1.5233     2.5414 C.2     
  14 C14            5.2749     2.0112     2.4589 C.3     
  15 C15            6.3658    -1.9338     3.5664 C.3     
  16 C16            7.8511    -2.3037     3.5385 C.3     
  17 C17            8.7151    -1.0627     3.7747 C.3     
  18 C18            8.4952    -0.1024     2.6051 C.3     
  19 C19           10.1887    -1.4621     3.8384 C.3     
  20 C20           11.0734    -0.2268     3.9809 C.3     
  21 C21           10.8414     0.7579     2.8373 C.3     
  22 C22            9.3621     1.1387     2.7503 C.3     
  23 C23           11.6589     2.0294     3.1111 C.3     
  24 C24           11.3113     0.1521     1.5153 C.3     
  25 C25            8.3151    -0.4147     5.0726 C.2     
  26 O26            7.9085     0.7231     5.0796 O.2     
  27 O27            8.4098    -1.1006     6.2225 O.3     
  28 C28            6.1850    -1.5116     1.1480 C.3     
  29 C29            4.3493    -0.0837     4.1682 C.3     
  30 C30            2.4380     2.0021     2.9929 C.3     
  31 C31           -0.2431     0.8287     1.9586 C.3     
  32 C32            0.1262    -0.6646     0.0220 C.3     
  33 O33           -0.6743     2.1429    -0.4195 O.3     
  34 C34           -0.9672     2.6338    -1.6340 C.2     
  35 O35           -0.1068     2.7085    -2.4790 O.2     
  36 C36           -2.3692     3.0917    -1.9436 C.3     
  37 H37            1.5243     3.6862    -0.4243 H       
  38 H38            1.0451     3.3114     1.2309 H       
  39 H39            1.1266     1.3854    -1.1397 H       
  40 H40            2.6286    -0.1925     0.3174 H       
  41 H41            3.3848     2.0518    -0.2945 H       
  42 H42            3.5304     3.3140     0.9540 H       
  43 H43            1.8974    -0.5823     3.2462 H       
  44 H44            1.5017    -1.7392     1.9667 H       
  45 H45            3.6674    -2.3070     2.9351 H       
  46 H46            3.7949    -1.8085     1.2322 H       
  47 H47            4.7841     0.7087     0.8376 H       
  48 H48            7.4763     2.2705     2.5740 H       
  49 H49            5.2526     2.8797     1.7903 H       
  50 H50            4.9470     2.3209     3.4421 H       
  51 H51            6.0986    -1.6612     4.5795 H       
  52 H52            5.7925    -2.8437     3.3162 H       
  53 H53            8.0523    -3.0269     4.3354 H       
  54 H54            8.1132    -2.7538     2.5845 H       
  55 H55            8.7457    -0.6161     1.6700 H       
  56 H56           10.3385    -2.1112     4.7095 H       
  57 H57           10.4560    -2.0230     2.9439 H       
  58 H58           10.8892     0.2683     4.9338 H       
  59 H59           12.1247    -0.5407     3.9642 H       
  60 H60            9.2213     1.7773     1.8676 H       
  61 H61            9.0776     1.7115     3.6310 H       
  62 H62           12.7170     1.7749     3.1725 H       
  63 H63           11.5032     2.7429     2.3019 H       
  64 H64           11.3366     2.4727     4.0533 H       
  65 H65           10.7537    -0.7631     1.3165 H       
  66 H66           11.1402     0.8644     0.7081 H       
  67 H67           12.3751    -0.0769     1.5784 H       
  68 H68            8.1412    -0.6423     7.0305 H       
  69 H69            5.9639    -0.7740     0.3765 H       
  70 H70            7.2075    -1.8689     1.0266 H       
  71 H71            5.4940    -2.3498     1.0579 H       
  72 H72            4.5886    -0.9713     4.7539 H       
  73 H73            4.9868     0.7423     4.4835 H       
  74 H74            3.3043     0.1838     4.3243 H       
  75 H75            2.2065     1.2165     3.7120 H       
  76 H76            3.1979     2.6635     3.4092 H       
  77 H77            1.5360     2.5751     2.7777 H       
  78 H78           -1.2702     0.8523     1.5946 H       
  79 H79           -0.1409     0.0434     2.7075 H       
  80 H80            0.0064     1.7912     2.4051 H       
  81 H81            0.7559    -0.8761    -0.8423 H       
  82 H82            0.1032    -1.5358     0.6766 H       
  83 H83           -0.8853    -0.4350    -0.3130 H       
  84 H84           -3.0002     2.9484    -1.0665 H       
  85 H85           -2.3553     4.1479    -2.2127 H       
  86 H86           -2.7660     2.5100    -2.7756 H       
@<TRIPOS>BOND
   1    1    2 1
   2    1    6 1
   3    1   37 1
   4    1   38 1
   5    2    3 1
   6    2   33 1
   7    2   39 1
   8    3    4 1
   9    3   31 1
  10    3   32 1
  11    4    5 1
  12    4    7 1
  13    4   40 1
  14    5    6 1
  15    5   30 1
  16    5   10 1
  17    6   41 1
  18    6   42 1
  19    7    8 1
  20    7   43 1
  21    7   44 1
  22    8    9 1
  23    8   45 1
  24    8   46 1
  25    9   10 1
  26    9   11 1
  27    9   29 1
  28   10   14 1
  29   10   47 1
  30   11   12 1
  31   11   15 1
  32   11   28 1
  33   12   13 2
  34   12   18 1
  35   13   14 1
  36   13   48 1
  37   14   49 1
  38   14   50 1
  39   15   16 1
  40   15   51 1
  41   15   52 1
  42   16   17 1
  43   16   53 1
  44   16   54 1
  45   17   18 1
  46   17   19 1
  47   17   25 1
  48   18   22 1
  49   18   55 1
  50   19   20 1
  51   19   56 1
  52   19   57 1
  53   20   21 1
  54   20   58 1
  55   20   59 1
  56   21   22 1
  57   21   23 1
  58   21   24 1
  59   22   60 1
  60   22   61 1
  61   23   62 1
  62   23   63 1
  63   23   64 1
  64   24   65 1
  65   24   66 1
  66   24   67 1
  67   25   26 2
  68   25   27 1
  69   27   68 1
  70   28   69 1
  71   28   70 1
  72   28   71 1
  73   29   72 1
  74   29   73 1
  75   29   74 1
  76   30   75 1
  77   30   76 1
  78   30   77 1
  79   31   78 1
  80   31   79 1
  81   31   80 1
  82   32   81 1
  83   32   82 1
  84   32   83 1
  85   33   34 1
  86   34   35 2
  87   34   36 1
  88   36   84 1
  89   36   85 1
  90   36   86 1

#	End of record

