#	Name: ASD03331064
#	Creating user name:	WinNT
#	Creation time:	15. 06. 2019 20:38

#	Modifying user name:	WinNT
#	Modification time:	15. 06. 2019 20:38

#	Program:	/corina/corina34_cracker 3.40 0067  02.08.2006

@<TRIPOS>MOLECULE
ASD03331064
  57   59    0    0    0
SMALL
NO_CHARGES


@<TRIPOS>ATOM
   1 N1            -1.7174     2.6101    -0.8246 N.pl3   
   2 C2            -1.2660     1.3272    -0.8278 C.2     
   3 C3             0.1697     0.9025    -0.9944 C.3     
   4 N4             1.0186     1.7138    -0.1081 N.3     
   5 C5             1.4584     2.9418    -0.7732 C.3     
   6 C6             0.3860     3.4602    -1.7271 C.3     
   7 C7            -0.8816     3.8084    -0.9422 C.3     
   8 C8            -3.0737     2.5657    -0.6810 C.2     
   9 N9            -3.4434     1.3102    -0.5814 N.2     
  10 C10           -2.3503     0.5201    -0.6655 C.2     
  11 C11           -2.3348    -0.9516    -0.5949 C.2     
  12 O12           -1.2819    -1.5537    -0.6845 O.2     
  13 N13           -3.4875    -1.6306    -0.4312 N.am    
  14 C14           -3.9761     3.7365    -0.6434 C.ar    
  15 C15           -5.1484     3.7430    -1.4042 C.ar    
  16 C16           -5.9882     4.8395    -1.3649 C.ar    
  17 C17           -5.6697     5.9307    -0.5738 C.ar    
  18 C18           -4.5065     5.9295     0.1832 C.ar    
  19 C19           -3.6631     4.8363     0.1562 C.ar    
  20 F20           -4.2013     6.9977     0.9520 F       
  21 F21           -6.4941     7.0005    -0.5393 F       
  22 F22           -5.4597     2.6794    -2.1769 F       
  23 C23            2.1674     0.9371     0.3765 C.3     
  24 C24           -3.1805    -3.5325     1.0754 C.3     
  25 C25           -3.4721    -3.0938    -0.3610 C.3     
  26 C26           -4.8342    -3.6395    -0.7944 C.3     
  27 C27           -5.9355    -2.9850     0.0422 C.3     
  28 C28           -5.0625    -3.3245    -2.2741 C.3     
  29 C29           -4.8668    -5.1547    -0.5846 C.3     
  30 O30           -4.2267    -3.0754     1.9348 O.3     
  31 H31            0.2708    -0.1506    -0.7321 H       
  32 H32            0.4761     1.0521    -2.0297 H       
  33 H33            1.6659     3.7022    -0.0203 H       
  34 H34            2.3696     2.7378    -1.3355 H       
  35 H35            0.7536     4.3514    -2.2357 H       
  36 H36            0.1556     2.6920    -2.4653 H       
  37 H37           -1.4335     4.5874    -1.4681 H       
  38 H38           -0.6090     4.1616     0.0523 H       
  39 H39           -4.3273    -1.1504    -0.3598 H       
  40 H40           -6.8945     4.8457    -1.9523 H       
  41 H41           -2.7604     4.8346     0.7491 H       
  42 H42            2.7261     0.5458    -0.4738 H       
  43 H43            2.8154     1.5800     0.9722 H       
  44 H44            1.8132     0.1091     0.9905 H       
  45 H45           -3.1239    -4.6202     1.1187 H       
  46 H46           -2.2313    -3.1061     1.3999 H       
  47 H47           -2.6981    -3.4812    -1.0235 H       
  48 H48           -5.7755    -1.9073     0.0740 H       
  49 H49           -6.9062    -3.1952    -0.4068 H       
  50 H50           -5.9091    -3.3863     1.0553 H       
  51 H51           -4.2780    -3.7908    -2.8701 H       
  52 H52           -6.0329    -3.7133    -2.5828 H       
  53 H53           -5.0393    -2.2451    -2.4236 H       
  54 H54           -4.7042    -5.3791     0.4696 H       
  55 H55           -5.8372    -5.5435    -0.8933 H       
  56 H56           -4.0823    -5.6210    -1.1805 H       
  57 H57           -4.1074    -3.3181     2.8632 H       
@<TRIPOS>BOND
   1    1    2 1
   2    1    7 1
   3    1    8 1
   4    2    3 1
   5    2   10 2
   6    3    4 1
   7    3   31 1
   8    3   32 1
   9    4    5 1
  10    4   23 1
  11    5    6 1
  12    5   33 1
  13    5   34 1
  14    6    7 1
  15    6   35 1
  16    6   36 1
  17    7   37 1
  18    7   38 1
  19    8    9 2
  20    8   14 1
  21    9   10 1
  22   10   11 1
  23   11   12 2
  24   11   13 am
  25   13   25 1
  26   13   39 1
  27   14   15 ar
  28   14   19 ar
  29   15   16 ar
  30   15   22 1
  31   16   17 ar
  32   16   40 1
  33   17   18 ar
  34   17   21 1
  35   18   19 ar
  36   18   20 1
  37   19   41 1
  38   23   42 1
  39   23   43 1
  40   23   44 1
  41   24   30 1
  42   24   25 1
  43   24   45 1
  44   24   46 1
  45   25   26 1
  46   25   47 1
  47   26   27 1
  48   26   28 1
  49   26   29 1
  50   27   48 1
  51   27   49 1
  52   27   50 1
  53   28   51 1
  54   28   52 1
  55   28   53 1
  56   29   54 1
  57   29   55 1
  58   29   56 1
  59   30   57 1

#	End of record

