#	Name: ASD00450016
#	Creating user name:	WinNT
#	Creation time:	15. 06. 2019 18:36

#	Modifying user name:	WinNT
#	Modification time:	15. 06. 2019 18:36

#	Program:	/corina/corina34_cracker 3.40 0067  02.08.2006

@<TRIPOS>MOLECULE
ASD00450016
  68   72    0    0    0
SMALL
NO_CHARGES


@<TRIPOS>ATOM
   1 C1             2.7743     2.0560    -3.9777 C.ar    
   2 N2             2.6997     0.7472    -4.1280 N.ar    
   3 C3             2.8377    -0.0832    -3.1034 C.ar    
   4 C4             3.0670     0.4106    -1.8274 C.ar    
   5 C5             3.1515     1.7826    -1.6319 C.ar    
   6 C6             3.0005     2.6178    -2.7389 C.ar    
   7 N7             2.7528    -1.4602    -3.3064 N.am    
   8 C8             2.5205    -2.2913    -2.2748 C.2     
   9 C9             2.3288    -1.7572    -0.8809 C.3     
  10 C10            3.2221    -0.5347    -0.6665 C.3     
  11 O11            3.3746     2.2977    -0.3960 O.3     
  12 C12            3.4499     3.6488    -0.2720 C.ar    
  13 C13            2.2936     4.4155    -0.2815 C.ar    
  14 C14            2.3809     5.7853    -0.1519 C.ar    
  15 C15            3.6159     6.4057    -0.0120 C.ar    
  16 C16            4.7659     5.6471    -0.0085 C.ar    
  17 C17            4.6808     4.2673    -0.1297 C.ar    
  18 C18            3.6337     7.9044     0.1398 C.3     
  19 C19            5.0265     8.4578    -0.1538 C.3     
  20 C20            6.0453     7.6736     0.6814 C.3     
  21 C21            6.1378     6.2555     0.1218 C.3     
  22 C22            7.3934     8.3418     0.5960 C.2     
  23 O23            7.5306     9.3478    -0.0674 O.2     
  24 N24            8.4465     7.8214     1.2567 N.am    
  25 C25            9.7183     8.3831     1.0991 C.ar    
  26 C26           10.6197     8.3716     2.1552 C.ar    
  27 C27           11.8745     8.9270     1.9964 C.ar    
  28 C28           12.2330     9.4944     0.7876 C.ar    
  29 C29           11.3373     9.5078    -0.2661 C.ar    
  30 C30           10.0838     8.9483    -0.1159 C.ar    
  31 O31            2.4643    -3.4869    -2.4705 O.2     
  32 C32           11.7320    10.1281    -1.5816 C.3     
  33 N33           13.1819     9.9894    -1.7730 N.3     
  34 C34           12.8534     8.9150     3.1421 C.3     
  35 C35           10.9971     9.4188    -2.7208 C.3     
  36 C36           11.3575    11.6115    -1.5787 C.3     
  37 F37           12.2674     8.2931     4.2497 F       
  38 F38           14.0027     8.2114     2.7661 F       
  39 F39           13.1991    10.2294     3.4739 F       
  40 H40            2.6610     2.6972    -4.8393 H       
  41 H41            3.0602     3.6904    -2.6273 H       
  42 H42            2.8620    -1.8219    -4.1998 H       
  43 H43            1.2859    -1.4723    -0.7422 H       
  44 H44            2.5916    -2.5293    -0.1577 H       
  45 H45            4.2620    -0.8535    -0.5941 H       
  46 H46            2.9321    -0.0294     0.2547 H       
  47 H47            1.3294     3.9414    -0.3903 H       
  48 H48            1.4805     6.3818    -0.1596 H       
  49 H49            5.5816     3.6717    -0.1179 H       
  50 H50            2.9183     8.3445    -0.5548 H       
  51 H51            3.3509     8.1656     1.1596 H       
  52 H52            5.2523     8.3399    -1.2137 H       
  53 H53            5.0662     9.5134     0.1151 H       
  54 H54            5.7181     7.6376     1.7205 H       
  55 H55            6.7404     5.6430     0.7925 H       
  56 H56            6.6119     6.2864    -0.8591 H       
  57 H57            8.3228     7.0575     1.8416 H       
  58 H58           10.3400     7.9293     3.0999 H       
  59 H59           13.2146     9.9283     0.6661 H       
  60 H60            9.3866     8.9545    -0.9407 H       
  61 H61           13.4717    10.3980    -2.6488 H       
  62 H62           13.6889    10.3938    -1.0000 H       
  63 H63            9.9213     9.5217    -2.5788 H       
  64 H64           11.2825     9.8675    -3.6723 H       
  65 H65           11.2639     8.3620    -2.7229 H       
  66 H66           11.8811    12.1169    -0.7671 H       
  67 H67           11.6429    12.0602    -2.5302 H       
  68 H68           10.2817    11.7144    -1.4367 H       
@<TRIPOS>BOND
   1    1    2 ar
   2    1    6 ar
   3    1   40 1
   4    2    3 ar
   5    3    4 ar
   6    3    7 1
   7    4    5 ar
   8    4   10 1
   9    5    6 ar
  10    5   11 1
  11    6   41 1
  12    7    8 am
  13    7   42 1
  14    8    9 1
  15    8   31 2
  16    9   10 1
  17    9   43 1
  18    9   44 1
  19   10   45 1
  20   10   46 1
  21   11   12 1
  22   12   13 ar
  23   12   17 ar
  24   13   14 ar
  25   13   47 1
  26   14   15 ar
  27   14   48 1
  28   15   16 ar
  29   15   18 1
  30   16   17 ar
  31   16   21 1
  32   17   49 1
  33   18   19 1
  34   18   50 1
  35   18   51 1
  36   19   20 1
  37   19   52 1
  38   19   53 1
  39   20   21 1
  40   20   22 1
  41   20   54 1
  42   21   55 1
  43   21   56 1
  44   22   23 2
  45   22   24 am
  46   24   25 1
  47   24   57 1
  48   25   26 ar
  49   25   30 ar
  50   26   27 ar
  51   26   58 1
  52   27   28 ar
  53   27   34 1
  54   28   29 ar
  55   28   59 1
  56   29   30 ar
  57   29   32 1
  58   30   60 1
  59   32   33 1
  60   32   35 1
  61   32   36 1
  62   33   61 1
  63   33   62 1
  64   34   37 1
  65   34   38 1
  66   34   39 1
  67   35   63 1
  68   35   64 1
  69   35   65 1
  70   36   66 1
  71   36   67 1
  72   36   68 1

#	End of record

