#	Name: ASD02198006
#	Creating user name:	WinNT
#	Creation time:	15. 06. 2019 20:18

#	Modifying user name:	WinNT
#	Modification time:	15. 06. 2019 20:18

#	Program:	/corina/corina34_cracker 3.40 0067  02.08.2006

@<TRIPOS>MOLECULE
ASD02198006
  41   43    0    0    0
SMALL
NO_CHARGES


@<TRIPOS>ATOM
   1 N1             0.0977    -0.5961     0.1518 N.am    
   2 C2             0.4892    -1.8694     0.3311 C.2     
   3 C3             1.9996    -1.9546     0.3289 C.3     
   4 C4             2.4541    -0.6135    -0.2923 C.3     
   5 C5             1.2505     0.3028     0.0212 C.3     
   6 O6            -0.2596    -2.8127     0.4744 O.2     
   7 C7             3.7062    -0.1065     0.3758 C.ar    
   8 C8             4.8548     0.0890    -0.3690 C.ar    
   9 C9             6.0065     0.5549     0.2436 C.ar    
  10 C10            6.0043     0.8252     1.6090 C.ar    
  11 C11            4.8504     0.6272     2.3493 C.ar    
  12 C12            3.7024     0.1672     1.7305 C.ar    
  13 O13            7.1327     1.2824     2.2150 O.3     
  14 C14            7.0569     1.5383     3.6189 C.3     
  15 O15            7.1370     0.7474    -0.4874 O.3     
  16 C16            7.0340     0.5672    -1.9012 C.3     
  17 C17            8.1350     1.3696    -2.6165 C.3     
  18 C18            8.9947     0.3473    -3.3882 C.3     
  19 C19            8.0507    -0.8630    -3.5958 C.3     
  20 C20            7.2631    -0.9148    -2.2631 C.3     
  21 H21           -0.8279    -0.3088     0.1098 H       
  22 H22            2.3777    -2.0512     1.3466 H       
  23 H23            2.3336    -2.7916    -0.2843 H       
  24 H24            2.6000    -0.7114    -1.3680 H       
  25 H25            1.0895     1.0066    -0.7954 H       
  26 H26            1.4181     0.8394     0.9551 H       
  27 H27            4.8539    -0.1218    -1.4282 H       
  28 H28            4.8460     0.8361     3.4089 H       
  29 H29            2.8021     0.0174     2.3080 H       
  30 H30            8.0224     1.8973     3.9754 H       
  31 H31            6.2952     2.2942     3.8098 H       
  32 H32            6.7954     0.6187     4.1423 H       
  33 H33            6.0521     0.8894    -2.2478 H       
  34 H34            7.6874     2.0807    -3.3109 H       
  35 H35            8.7479     1.8965    -1.8853 H       
  36 H36            9.3054     0.7580    -4.3488 H       
  37 H37            9.8635     0.0565    -2.7976 H       
  38 H38            7.3780    -0.6886    -4.4356 H       
  39 H39            8.6233    -1.7789    -3.7420 H       
  40 H40            7.8522    -1.4094    -1.4909 H       
  41 H41            6.3101    -1.4252    -2.4028 H       
@<TRIPOS>BOND
   1    1    2 am
   2    1    5 1
   3    1   21 1
   4    2    3 1
   5    2    6 2
   6    3    4 1
   7    3   22 1
   8    3   23 1
   9    4    5 1
  10    4    7 1
  11    4   24 1
  12    5   25 1
  13    5   26 1
  14    7    8 ar
  15    7   12 ar
  16    8    9 ar
  17    8   27 1
  18    9   10 ar
  19    9   15 1
  20   10   11 ar
  21   10   13 1
  22   11   12 ar
  23   11   28 1
  24   12   29 1
  25   13   14 1
  26   14   30 1
  27   14   31 1
  28   14   32 1
  29   15   16 1
  30   16   17 1
  31   16   20 1
  32   16   33 1
  33   17   18 1
  34   17   34 1
  35   17   35 1
  36   18   19 1
  37   18   36 1
  38   18   37 1
  39   19   20 1
  40   19   38 1
  41   19   39 1
  42   20   40 1
  43   20   41 1

#	End of record

