#	Name: ASD03430717
#	Creating user name:	WinNT
#	Creation time:	15. 06. 2019 20:41

#	Modifying user name:	WinNT
#	Modification time:	15. 06. 2019 20:41

#	Program:	/corina/corina34_cracker 3.40 0067  02.08.2006

@<TRIPOS>MOLECULE
ASD03430717
  58   64    0    0    0
SMALL
NO_CHARGES


@<TRIPOS>ATOM
   1 C1             2.6659     0.3902    -0.0122 C.ar    
   2 C2             2.0969    -0.8735    -0.0480 C.ar    
   3 C3             2.8850    -1.9841    -0.2648 C.ar    
   4 C4             4.2595    -1.8539    -0.4399 C.ar    
   5 C5             4.8266    -0.5840    -0.4077 C.ar    
   6 C6             4.0367     0.5330    -0.1941 C.ar    
   7 O7             4.8532    -3.0698    -0.6108 O.3     
   8 C8             2.5751    -3.4524    -0.3792 C.3     
   9 C9             3.8556    -4.0364    -0.9919 C.3     
  10 C10            0.9862    -4.6295     0.8083 C.ar    
  11 C11            2.2554    -4.0738     0.9479 C.ar    
  12 C12            1.3744    -3.7163    -1.2417 C.2     
  13 N13            0.4994    -4.4045    -0.4816 N.am    
  14 O14            1.2216    -3.3762    -2.3959 O.2     
  15 C15            2.9360    -4.1709     2.1431 C.ar    
  16 C16            2.3580    -4.8271     3.2187 C.ar    
  17 C17            1.0990    -5.3828     3.0888 C.ar    
  18 C18            0.4145    -5.2870     1.8946 C.ar    
  19 C19           -0.8093    -4.8637    -0.9535 C.3     
  20 O20            1.8719     1.4766     0.1954 O.3     
  21 C21            2.5274     2.6867     0.5902 C.3     
  22 C22            3.7475     2.8900    -0.3184 C.3     
  23 O23            4.6172     1.7643    -0.1613 O.3     
  24 F24            4.1665    -3.6270     2.2658 F       
  25 C25           -1.8955    -4.1964    -0.1499 C.ar    
  26 C26           -3.0374    -4.8992     0.1864 C.ar    
  27 C27           -4.0338    -4.2871     0.9235 C.ar    
  28 C28           -3.8882    -2.9723     1.3247 C.ar    
  29 C29           -2.7460    -2.2697     0.9892 C.ar    
  30 C30           -1.7476    -2.8832     0.2558 C.ar    
  31 C31           -0.9712    -4.5088    -2.4092 C.ar    
  32 C32           -0.9307    -5.5007    -3.3711 C.ar    
  33 C33           -1.0793    -5.1752    -4.7063 C.ar    
  34 C34           -1.2687    -3.8577    -5.0796 C.ar    
  35 C35           -1.3101    -2.8659    -4.1176 C.ar    
  36 C36           -1.1659    -3.1920    -2.7820 C.ar    
  37 H37            1.0325    -0.9886     0.0948 H       
  38 H38            5.8910    -0.4685    -0.5499 H       
  39 H39            3.7718    -4.0989    -2.0769 H       
  40 H40            4.0793    -5.0131    -0.5630 H       
  41 H41            2.8899    -4.9041     4.1555 H       
  42 H42            0.6489    -5.8950     3.9263 H       
  43 H43           -0.5687    -5.7242     1.8018 H       
  44 H44           -0.8801    -5.9447    -0.8330 H       
  45 H45            1.8432     3.5281     0.4808 H       
  46 H46            2.8510     2.6078     1.6281 H       
  47 H47            3.4245     2.9613    -1.3570 H       
  48 H48            4.2710     3.8022    -0.0322 H       
  49 H49           -3.1511    -5.9265    -0.1270 H       
  50 H50           -4.9262    -4.8360     1.1857 H       
  51 H51           -4.6670    -2.4939     1.9000 H       
  52 H52           -2.6324    -1.2424     1.3023 H       
  53 H53           -0.8536    -2.3355    -0.0032 H       
  54 H54           -0.7827    -6.5300    -3.0794 H       
  55 H55           -1.0469    -5.9501    -5.4579 H       
  56 H56           -1.3841    -3.6033    -6.1228 H       
  57 H57           -1.4578    -1.8366    -4.4092 H       
  58 H58           -1.2020    -2.4175    -2.0301 H       
@<TRIPOS>BOND
   1    1    2 ar
   2    1    6 ar
   3    1   20 1
   4    2    3 ar
   5    2   37 1
   6    3    4 ar
   7    3    8 1
   8    4    5 ar
   9    4    7 1
  10    5    6 ar
  11    5   38 1
  12    6   23 1
  13    7    9 1
  14    8    9 1
  15    8   11 1
  16    8   12 1
  17    9   39 1
  18    9   40 1
  19   10   11 ar
  20   10   13 1
  21   10   18 ar
  22   11   15 ar
  23   12   13 am
  24   12   14 2
  25   13   19 1
  26   15   16 ar
  27   15   24 1
  28   16   17 ar
  29   16   41 1
  30   17   18 ar
  31   17   42 1
  32   18   43 1
  33   19   25 1
  34   19   31 1
  35   19   44 1
  36   20   21 1
  37   21   22 1
  38   21   45 1
  39   21   46 1
  40   22   23 1
  41   22   47 1
  42   22   48 1
  43   25   26 ar
  44   25   30 ar
  45   26   27 ar
  46   26   49 1
  47   27   28 ar
  48   27   50 1
  49   28   29 ar
  50   28   51 1
  51   29   30 ar
  52   29   52 1
  53   30   53 1
  54   31   32 ar
  55   31   36 ar
  56   32   33 ar
  57   32   54 1
  58   33   34 ar
  59   33   55 1
  60   34   35 ar
  61   34   56 1
  62   35   36 ar
  63   35   57 1
  64   36   58 1

#	End of record

