#	Name: ASD01917788
#	Creating user name:	WinNT
#	Creation time:	15. 06. 2019 20:10

#	Modifying user name:	WinNT
#	Modification time:	15. 06. 2019 20:10

#	Program:	/corina/corina34_cracker 3.40 0067  02.08.2006

@<TRIPOS>MOLECULE
ASD01917788
  42   45    0    0    0
SMALL
NO_CHARGES


@<TRIPOS>ATOM
   1 C1             0.0237     1.2345    -0.1586 C.2     
   2 C2            -0.0102    -0.1117    -0.1329 C.2     
   3 C3            -1.2711    -0.9337    -0.0454 C.3     
   4 C4            -2.4121    -0.0387     0.4540 C.3     
   5 N5            -2.3758     1.2393    -0.2727 N.am    
   6 C6            -1.2015     2.1125    -0.0929 C.3     
   7 C7            -3.3897     1.6029    -1.0828 C.2     
   8 O8            -4.2899     0.8210    -1.3180 O.2     
   9 C9            -3.4069     2.9548    -1.6860 C.ar    
  10 O10            1.3087     1.6026    -0.2443 O.3     
  11 C11            2.0494     0.4832    -0.2668 C.2     
  12 N12            1.2543    -0.5493    -0.1992 N.2     
  13 C13            3.5528     0.4281    -0.3559 C.3     
  14 O14            3.9472     0.3849    -1.7287 O.3     
  15 C15            5.2806     0.3322    -1.9861 C.ar    
  16 C16            5.7341     0.2882    -3.2965 C.ar    
  17 C17            7.0900     0.2346    -3.5555 C.ar    
  18 C18            7.9948     0.2248    -2.5101 C.ar    
  19 C19            7.5454     0.2681    -1.2033 C.ar    
  20 C20            6.1908     0.3280    -0.9391 C.ar    
  21 C21           -4.3665     3.2701    -2.6459 C.ar    
  22 C22           -4.3713     4.5385    -3.2022 C.ar    
  23 C23           -3.4139     5.4507    -2.7785 C.ar    
  24 C24           -2.4875     5.0667    -1.8172 C.ar    
  25 N25           -2.5112     3.8572    -1.3034 N.ar    
  26 F26           -3.3834     6.6983    -3.2961 F       
  27 H27           -1.5199    -1.3269    -1.0311 H       
  28 H28           -1.1218    -1.7583     0.6518 H       
  29 H29           -3.3673    -0.5324     0.2753 H       
  30 H30           -2.2902     0.1456     1.5214 H       
  31 H31           -1.2518     2.6066     0.8773 H       
  32 H32           -1.1677     2.8571    -0.8882 H       
  33 H33            3.9775     1.3139     0.1164 H       
  34 H34            3.9145    -0.4646     0.1543 H       
  35 H35            5.0277     0.2954    -4.1134 H       
  36 H36            7.4435     0.2000    -4.5755 H       
  37 H37            9.0544     0.1828    -2.7147 H       
  38 H38            8.2542     0.2596    -0.3884 H       
  39 H39            5.8402     0.3618     0.0818 H       
  40 H40           -5.0964     2.5353    -2.9523 H       
  41 H41           -5.1026     4.8117    -3.9485 H       
  42 H42           -1.7407     5.7725    -1.4847 H       
@<TRIPOS>BOND
   1    1    2 2
   2    1   10 1
   3    1    6 1
   4    2    3 1
   5    2   12 1
   6    3    4 1
   7    3   27 1
   8    3   28 1
   9    4    5 1
  10    4   29 1
  11    4   30 1
  12    5    6 1
  13    5    7 am
  14    6   31 1
  15    6   32 1
  16    7    8 2
  17    7    9 1
  18    9   21 ar
  19    9   25 ar
  20   10   11 1
  21   11   12 2
  22   11   13 1
  23   13   14 1
  24   13   33 1
  25   13   34 1
  26   14   15 1
  27   15   16 ar
  28   15   20 ar
  29   16   17 ar
  30   16   35 1
  31   17   18 ar
  32   17   36 1
  33   18   19 ar
  34   18   37 1
  35   19   20 ar
  36   19   38 1
  37   20   39 1
  38   21   22 ar
  39   21   40 1
  40   22   23 ar
  41   22   41 1
  42   23   24 ar
  43   23   26 1
  44   24   25 ar
  45   24   42 1

#	End of record

