#	Name: ASD01815589
#	Creating user name:	WinNT
#	Creation time:	15. 06. 2019 19:33

#	Modifying user name:	WinNT
#	Modification time:	15. 06. 2019 19:33

#	Program:	/corina/corina34_cracker 3.40 0067  02.08.2006

@<TRIPOS>MOLECULE
ASD01815589
  34   36    0    0    0
SMALL
NO_CHARGES


@<TRIPOS>ATOM
   1 C1            -0.0168     1.3845     0.0097 C.ar    
   2 C2             0.0021    -0.0041     0.0020 C.ar    
   3 C3             1.1978    -0.6920    -0.0131 C.ar    
   4 C4             2.4000     0.0096    -0.0207 C.ar    
   5 C5             2.3717     1.4151    -0.0129 C.ar    
   6 C6             1.1527     2.0926     0.0023 C.ar    
   7 N7             3.6034    -0.6617    -0.0353 N.pl3   
   8 C8             4.7853    -0.0319    -0.0423 C.2     
   9 C9             4.8852     1.3446    -0.0354 C.2     
  10 C10            3.6514     2.1473    -0.0212 C.2     
  11 O11            3.6862     3.3654    -0.0155 O.2     
  12 C12            6.2016     1.9982    -0.0425 C.2     
  13 O13            7.2141     1.3256    -0.0546 O.2     
  14 O14            6.2862     3.3436    -0.0356 O.3     
  15 C15            3.5892    -2.1266    -0.0430 C.3     
  16 C16            3.5714    -2.6213    -1.4663 C.ar    
  17 C17            4.7605    -2.8594    -2.1294 C.ar    
  18 C18            4.7450    -3.3138    -3.4367 C.ar    
  19 C19            3.5358    -3.5296    -4.0797 C.ar    
  20 C20            2.3467    -3.2902    -3.4130 C.ar    
  21 C21            2.3656    -2.8419    -2.1057 C.ar    
  22 Cl22          -1.4947    -0.8834     0.0121 Cl      
  23 F23            3.5181    -3.9727    -5.3559 F       
  24 F24            5.9069    -3.5464    -4.0856 F       
  25 H25           -0.9612     1.9083     0.0170 H       
  26 H26            1.2011    -1.7720    -0.0185 H       
  27 H27            1.1327     3.1724     0.0079 H       
  28 H28            5.6906    -0.6209    -0.0533 H       
  29 H29            7.1736     3.7277    -0.0408 H       
  30 H30            4.4803    -2.5012     0.4607 H       
  31 H31            2.7005    -2.4841     0.4771 H       
  32 H32            5.7018    -2.6906    -1.6275 H       
  33 H33            1.4041    -3.4579    -3.9128 H       
  34 H34            1.4374    -2.6553    -1.5860 H       
@<TRIPOS>BOND
   1    1    2 ar
   2    1    6 ar
   3    1   25 1
   4    2    3 ar
   5    2   22 1
   6    3    4 ar
   7    3   26 1
   8    4    5 ar
   9    4    7 1
  10    5    6 ar
  11    5   10 1
  12    6   27 1
  13    7    8 1
  14    7   15 1
  15    8    9 2
  16    8   28 1
  17    9   10 1
  18    9   12 1
  19   10   11 2
  20   12   13 2
  21   12   14 1
  22   14   29 1
  23   15   16 1
  24   15   30 1
  25   15   31 1
  26   16   17 ar
  27   16   21 ar
  28   17   18 ar
  29   17   32 1
  30   18   19 ar
  31   18   24 1
  32   19   20 ar
  33   19   23 1
  34   20   21 ar
  35   20   33 1
  36   21   34 1

#	End of record

