#	Name: ASD02500007
#	Creating user name:	WinNT
#	Creation time:	15. 06. 2019 20:22

#	Modifying user name:	WinNT
#	Modification time:	15. 06. 2019 20:22

#	Program:	/corina/corina34_cracker 3.40 0067  02.08.2006

@<TRIPOS>MOLECULE
ASD02500007
  33   35    0    0    0
SMALL
NO_CHARGES


@<TRIPOS>ATOM
   1 C1            -0.2487     1.3564    -0.0133 C.ar    
   2 C2            -0.2002    -0.0295    -0.0171 C.ar    
   3 N3             0.9467    -0.6682    -0.0363 N.ar    
   4 C4             2.1183    -0.0278    -0.0533 C.ar    
   5 C5             2.1523     1.3719    -0.0511 C.ar    
   6 C6             0.9255     2.0749    -0.0302 C.ar    
   7 S7             3.7558    -0.6714    -0.0806 S.3     
   8 C8             4.4677     0.9298    -0.0889 C.2     
   9 C9             3.5080     1.8901    -0.0718 C.2     
  10 N10            3.7997     3.2564    -0.0738 N.pl3   
  11 C11            4.3605     3.9527     0.9589 C.2     
  12 C12            4.4851     5.2410     0.5799 C.2     
  13 C13            3.9839     5.3460    -0.7335 C.2     
  14 C14            3.5769     4.1169    -1.1110 C.2     
  15 C15            0.9039     3.5818    -0.0274 C.3     
  16 C16           -1.4856    -0.8158     0.0014 C.3     
  17 C17            5.8584     1.1878    -0.1099 C.2     
  18 C18            6.7398     0.1559    -0.1256 C.2     
  19 C19            8.1476     0.4171    -0.1468 C.1     
  20 N20            9.2644     0.6242    -0.1637 N.1     
  21 H21           -1.1999     1.8679    -0.0016 H       
  22 H22            4.6530     3.5425     1.9143 H       
  23 H23            4.8937     6.0450     1.1739 H       
  24 H24            3.9383     6.2452    -1.3298 H       
  25 H25            3.1433     3.8588    -2.0659 H       
  26 H26            0.9849     3.9482    -1.0508 H       
  27 H27           -0.0311     3.9309     0.4106 H       
  28 H28            1.7424     3.9561     0.5599 H       
  29 H29           -1.8118    -1.0031    -1.0217 H       
  30 H30           -1.3232    -1.7658     0.5106 H       
  31 H31           -2.2517    -0.2473     0.5287 H       
  32 H32            6.2188     2.2059    -0.1133 H       
  33 H33            6.3794    -0.8622    -0.1222 H       
@<TRIPOS>BOND
   1    1    2 ar
   2    1    6 ar
   3    1   21 1
   4    2    3 ar
   5    2   16 1
   6    3    4 ar
   7    4    5 ar
   8    4    7 1
   9    5    6 ar
  10    5    9 1
  11    6   15 1
  12    7    8 1
  13    8    9 2
  14    8   17 1
  15    9   10 1
  16   10   11 1
  17   10   14 1
  18   11   12 2
  19   11   22 1
  20   12   13 1
  21   12   23 1
  22   13   14 2
  23   13   24 1
  24   14   25 1
  25   15   26 1
  26   15   27 1
  27   15   28 1
  28   16   29 1
  29   16   30 1
  30   16   31 1
  31   17   18 2
  32   17   32 1
  33   18   19 1
  34   18   33 1
  35   19   20 3

#	End of record

