#	Name: ASD03090186
#	Creating user name:	WinNT
#	Creation time:	15. 06. 2019 20:28

#	Modifying user name:	WinNT
#	Modification time:	15. 06. 2019 20:28

#	Program:	/corina/corina34_cracker 3.40 0067  02.08.2006

@<TRIPOS>MOLECULE
ASD03090186
  51   53    0    0    0
SMALL
NO_CHARGES


@<TRIPOS>ATOM
   1 N1            -0.2822     0.9158    -0.8053 N.ar    
   2 C2            -0.1631    -0.1754    -0.0734 C.ar    
   3 C3             1.0661    -0.7739     0.1114 C.ar    
   4 C4             2.1943    -0.2066    -0.4911 C.ar    
   5 C5             2.0215     0.9500    -1.2587 C.ar    
   6 C6             0.7552     1.4826    -1.3904 C.ar    
   7 C7             3.5336    -0.8132    -0.3206 C.2     
   8 N8             7.0468    -0.7764    -0.4219 N.pl3   
   9 C9             7.4526     0.4462    -0.9634 C.ar    
  10 C10            6.6697     1.0773    -1.9215 C.ar    
  11 C11            7.0736     2.2859    -2.4543 C.ar    
  12 C12            8.2557     2.8677    -2.0349 C.ar    
  13 C13            9.0378     2.2420    -1.0810 C.ar    
  14 C14            8.6373     1.0362    -0.5403 C.ar    
  15 N15            4.6880    -0.2201    -0.5493 N.2     
  16 C16            5.6870    -1.0646    -0.2902 C.2     
  17 N17            5.1858    -2.2115     0.1084 N.2     
  18 N18            3.7885    -2.0713     0.1026 N.pl3   
  19 C19            2.8025    -3.0897     0.4726 C.3     
  20 C20            2.5543    -3.0350     1.9813 C.3     
  21 C21            0.5547     2.7280    -2.2149 C.3     
  22 C22            1.5400    -4.0826     2.3619 C.2     
  23 N23            1.1634    -4.2199     3.6486 N.am    
  24 O24            1.0627    -4.8022     1.5102 O.2     
  25 C25            0.1774    -5.2384     4.0186 C.3     
  26 C26            1.7399    -3.3507     4.6774 C.3     
  27 C27           10.3254     2.8798    -0.6270 C.3     
  28 F28           10.5128     4.0877    -1.3074 F       
  29 F29           10.2649     3.1243     0.7492 F       
  30 F30           11.3940     2.0195    -0.9011 F       
  31 H31           -1.0399    -0.6058     0.3876 H       
  32 H32            1.1562    -1.6667     0.7124 H       
  33 H33            2.8665     1.4195    -1.7404 H       
  34 H34            7.7098    -1.4248    -0.1375 H       
  35 H35            5.7464     0.6233    -2.2498 H       
  36 H36            6.4655     2.7770    -3.1996 H       
  37 H37            8.5694     3.8126    -2.4534 H       
  38 H38            9.2484     0.5481     0.2045 H       
  39 H39            1.8685    -2.9003    -0.0564 H       
  40 H40            3.1798    -4.0759     0.2020 H       
  41 H41            3.4883    -3.2244     2.5103 H       
  42 H42            2.1770    -2.0488     2.2519 H       
  43 H43            0.3502     2.4502    -3.2489 H       
  44 H44           -0.2871     3.2951    -1.8177 H       
  45 H45            1.4561     3.3395    -2.1745 H       
  46 H46            0.6899    -6.1697     4.2595 H       
  47 H47           -0.3870    -4.8991     4.8871 H       
  48 H48           -0.5043    -5.4041     3.1843 H       
  49 H49            2.4481    -2.6623     4.2162 H       
  50 H50            0.9447    -2.7838     5.1615 H       
  51 H51            2.2560    -3.9595     5.4198 H       
@<TRIPOS>BOND
   1    1    2 ar
   2    1    6 ar
   3    2    3 ar
   4    2   31 1
   5    3    4 ar
   6    3   32 1
   7    4    5 ar
   8    4    7 1
   9    5    6 ar
  10    5   33 1
  11    6   21 1
  12    7   15 2
  13    7   18 1
  14    8    9 1
  15    8   16 1
  16    8   34 1
  17    9   10 ar
  18    9   14 ar
  19   10   11 ar
  20   10   35 1
  21   11   12 ar
  22   11   36 1
  23   12   13 ar
  24   12   37 1
  25   13   14 ar
  26   13   27 1
  27   14   38 1
  28   15   16 1
  29   16   17 2
  30   17   18 1
  31   18   19 1
  32   19   20 1
  33   19   39 1
  34   19   40 1
  35   20   22 1
  36   20   41 1
  37   20   42 1
  38   21   43 1
  39   21   44 1
  40   21   45 1
  41   22   23 am
  42   22   24 2
  43   23   25 1
  44   23   26 1
  45   25   46 1
  46   25   47 1
  47   25   48 1
  48   26   49 1
  49   26   50 1
  50   26   51 1
  51   27   28 1
  52   27   29 1
  53   27   30 1

#	End of record

