#	Name: ASD00170738
#	Creating user name:	WinNT
#	Creation time:	15. 06. 2019 18:32

#	Modifying user name:	WinNT
#	Modification time:	15. 06. 2019 18:32

#	Program:	/corina/corina34_cracker 3.40 0067  02.08.2006

@<TRIPOS>MOLECULE
ASD00170738
 100  106    0    0    0
SMALL
NO_CHARGES


@<TRIPOS>ATOM
   1 C1             1.5411     0.3430    -9.4213 C.3     
   2 C2             1.8440     1.3375    -8.2786 C.3     
   3 C3             0.4657     1.5948    -7.6297 C.3     
   4 C4            -0.5070     0.7254    -8.4570 C.3     
   5 O5             0.3189    -0.3154    -9.0232 O.3     
   6 O6             0.4703     1.1785    -6.2627 O.3     
   7 O7             2.7420     0.7543    -7.3323 O.3     
   8 C8             2.6751    -0.6752    -9.5559 C.3     
   9 O9             2.4326    -1.5113   -10.6891 O.3     
  10 N10           -1.5357     0.1453    -7.5902 N.pl3   
  11 C11           -2.8681     0.5044    -7.7437 C.ar    
  12 C12           -3.7669     0.2182    -6.7250 C.ar    
  13 C13           -3.3027    -0.4629    -5.4711 C.3     
  14 N14           -1.9823    -1.0531    -5.6491 N.2     
  15 C15           -1.1949    -0.7635    -6.6207 C.2     
  16 N16           -3.2997     1.1142    -8.8422 N.ar    
  17 C17           -4.5707     1.4436    -8.9689 C.ar    
  18 N18           -5.4559     1.1870    -8.0273 N.ar    
  19 C19           -5.0986     0.5791    -6.8960 C.ar    
  20 N20           -6.0363     0.3121    -5.9097 N.pl3   
  21 C21           -7.3919     0.5732    -6.1434 C.ar    
  22 C22           -7.9197     0.4175    -7.4184 C.ar    
  23 C23           -9.2568     0.6753    -7.6481 C.ar    
  24 C24          -10.0727     1.0896    -6.6056 C.ar    
  25 C25           -9.5463     1.2453    -5.3317 C.ar    
  26 C26           -8.2107     0.9825    -5.0991 C.ar    
  27 O27          -11.3892     1.3436    -6.8327 O.3     
  28 C28          -12.1707     1.7666    -5.7136 C.3     
  29 C29          -13.6150     2.0025    -6.1602 C.3     
  30 C30          -14.4517     2.4554    -4.9620 C.3     
  31 C31          -15.8960     2.6912    -5.4086 C.3     
  32 C32          -16.7328     3.1441    -4.2104 C.3     
  33 N33          -21.2615     4.5036    -2.7549 N.3     
  34 C34          -22.5890     4.9662    -3.1843 C.3     
  35 C35          -23.5182     5.0394    -1.9684 C.3     
  36 C36          -22.8037     5.8129    -0.8710 C.2     
  37 C37          -21.4840     6.0354    -0.8877 C.2     
  38 C38          -20.5632     5.5462    -1.9885 C.3     
  39 C39          -23.4491     6.3871     0.2941 C.2     
  40 C40          -22.5753     7.0357     1.1307 C.2     
  41 S41          -20.9874     6.9558     0.5207 S.3     
  42 N42          -22.9343     7.6664     2.3047 N.pl3   
  43 C43          -24.8855     6.2858     0.5511 C.2     
  44 C44          -25.4317     5.0955     1.2380 C.ar    
  45 O45          -25.6316     7.1817     0.1995 O.2     
  46 C46          -26.8113     4.9438     1.3862 C.ar    
  47 C47          -27.3150     3.8305     2.0283 C.ar    
  48 C48          -26.4534     2.8651     2.5249 C.ar    
  49 C49          -25.0837     3.0115     2.3806 C.ar    
  50 C50          -24.5695     4.1164     1.7355 C.ar    
  51 Cl51         -29.0304     3.6396     2.2145 Cl      
  52 Cl52         -27.0935     1.4674     3.3314 Cl      
  53 C53          -18.1770     3.3800    -4.6569 C.3     
  54 C54          -19.0138     3.8329    -3.4588 C.3     
  55 C55          -20.4581     4.0687    -3.9053 C.3     
  56 H56            1.3979     0.8768   -10.3608 H       
  57 H57            2.2571     2.2638    -8.6780 H       
  58 H58            0.1984     2.6488    -7.7060 H       
  59 H59           -0.9662     1.3180    -9.2482 H       
  60 H60            1.1076     1.6510    -5.7097 H       
  61 H61            3.6034     0.5167    -7.7021 H       
  62 H62            3.6212    -0.1501    -9.6876 H       
  63 H63            2.7220    -1.2879    -8.6556 H       
  64 H64            3.1133    -2.1823   -10.8357 H       
  65 H65           -3.2617     0.2668    -4.6624 H       
  66 H66           -4.0120    -1.2474    -5.2072 H       
  67 H67           -0.2294    -1.2448    -6.6708 H       
  68 H68           -4.8956     1.9392    -9.8718 H       
  69 H69           -5.7530    -0.0555    -5.0579 H       
  70 H70           -7.2845     0.0953    -8.2303 H       
  71 H71           -9.6673     0.5546    -8.6397 H       
  72 H72          -10.1822     1.5683    -4.5206 H       
  73 H73           -7.8010     1.1038    -4.1072 H       
  74 H74          -12.1498     0.9955    -4.9436 H       
  75 H75          -11.7588     2.6924    -5.3119 H       
  76 H76          -13.6358     2.7736    -6.9302 H       
  77 H77          -14.0268     1.0767    -6.5618 H       
  78 H78          -14.4308     1.6842    -4.1920 H       
  79 H79          -14.0398     3.3812    -4.5603 H       
  80 H80          -15.9169     3.4624    -6.1786 H       
  81 H81          -16.3079     1.7654    -5.8102 H       
  82 H82          -16.7119     2.3730    -3.4403 H       
  83 H83          -16.3209     4.0699    -3.8087 H       
  84 H84          -22.5015     5.9547    -3.6352 H       
  85 H85          -22.9991     4.2680    -3.9140 H       
  86 H86          -24.4400     5.5536    -2.2404 H       
  87 H87          -23.7472     4.0325    -1.6193 H       
  88 H88          -19.6558     5.1318    -1.5493 H       
  89 H89          -20.3079     6.3759    -2.6477 H       
  90 H90          -23.8474     7.6081     2.6269 H       
  91 H91          -22.2736     8.1679     2.8075 H       
  92 H92          -27.4831     5.6959     0.9997 H       
  93 H93          -24.4171     2.2562     2.7699 H       
  94 H94          -23.5013     4.2291     1.6238 H       
  95 H95          -18.1979     4.1511    -5.4270 H       
  96 H96          -18.5889     2.4542    -5.0586 H       
  97 H97          -18.9929     3.0617    -2.6887 H       
  98 H98          -18.6019     4.7587    -3.0571 H       
  99 H99          -20.8699     3.1429    -4.3070 H       
 100 H100         -20.4789     4.8399    -4.6754 H       
@<TRIPOS>BOND
   1    1    2 1
   2    1    8 1
   3    1    5 1
   4    1   56 1
   5    2    3 1
   6    2    7 1
   7    2   57 1
   8    3    6 1
   9    3    4 1
  10    3   58 1
  11    4    5 1
  12    4   10 1
  13    4   59 1
  14    6   60 1
  15    7   61 1
  16    8    9 1
  17    8   62 1
  18    8   63 1
  19    9   64 1
  20   10   11 1
  21   10   15 1
  22   11   12 ar
  23   11   16 ar
  24   12   13 1
  25   12   19 ar
  26   13   14 1
  27   13   65 1
  28   13   66 1
  29   14   15 2
  30   15   67 1
  31   16   17 ar
  32   17   18 ar
  33   17   68 1
  34   18   19 ar
  35   19   20 1
  36   20   21 1
  37   20   69 1
  38   21   22 ar
  39   21   26 ar
  40   22   23 ar
  41   22   70 1
  42   23   24 ar
  43   23   71 1
  44   24   25 ar
  45   24   27 1
  46   25   26 ar
  47   25   72 1
  48   26   73 1
  49   27   28 1
  50   28   29 1
  51   28   74 1
  52   28   75 1
  53   29   30 1
  54   29   76 1
  55   29   77 1
  56   30   31 1
  57   30   78 1
  58   30   79 1
  59   31   32 1
  60   31   80 1
  61   31   81 1
  62   32   53 1
  63   32   82 1
  64   32   83 1
  65   33   34 1
  66   33   38 1
  67   33   55 1
  68   34   35 1
  69   34   84 1
  70   34   85 1
  71   35   36 1
  72   35   86 1
  73   35   87 1
  74   36   37 2
  75   36   39 1
  76   37   38 1
  77   37   41 1
  78   38   88 1
  79   38   89 1
  80   39   40 2
  81   39   43 1
  82   40   41 1
  83   40   42 1
  84   42   90 1
  85   42   91 1
  86   43   44 1
  87   43   45 2
  88   44   46 ar
  89   44   50 ar
  90   46   47 ar
  91   46   92 1
  92   47   48 ar
  93   47   51 1
  94   48   49 ar
  95   48   52 1
  96   49   50 ar
  97   49   93 1
  98   50   94 1
  99   53   54 1
 100   53   95 1
 101   53   96 1
 102   54   55 1
 103   54   97 1
 104   54   98 1
 105   55   99 1
 106   55  100 1

#	End of record

