#	Name: ASD08178246
#	Creating user name:	WinNT
#	Creation time:	15. 06. 2019 21:18

#	Modifying user name:	WinNT
#	Modification time:	15. 06. 2019 21:18

#	Program:	/corina/corina34_cracker 3.40 0067  02.08.2006

@<TRIPOS>MOLECULE
ASD08178246
  74   77    0    0    0
SMALL
NO_CHARGES


@<TRIPOS>ATOM
   1 N1            -0.6352     1.5508    -0.4527 N.am    
   2 C2            -0.6577     0.1568    -0.4263 C.ar    
   3 C3             0.5243    -0.5652    -0.5789 C.ar    
   4 N4            -1.8020    -0.4869    -0.2505 N.ar    
   5 N5            -1.8654    -1.7685    -0.2196 N.ar    
   6 C6            -0.7980    -2.5297    -0.3605 C.ar    
   7 C7             0.4485    -1.9493    -0.5447 C.ar    
   8 C8            -0.9313    -4.0302    -0.3153 C.3     
   9 C9            -1.6233    -4.4417     0.9858 C.3     
  10 C10           -1.7587    -5.9650     1.0317 C.3     
  11 C11           -2.4507    -6.3766     2.3327 C.3     
  12 C12           -2.5840    -7.8770     2.3779 C.2     
  13 N13           -1.7215    -8.7060     2.8744 N.2     
  14 N14           -2.0182    -9.9317     2.8167 N.2     
  15 C15           -3.1518   -10.2527     2.2698 C.2     
  16 S16           -3.9461    -8.8192     1.7710 S.3     
  17 N17           -3.6419   -11.5455     2.1193 N.am    
  18 C18           -2.9211   -12.5952     2.5610 C.2     
  19 C19           -3.4523   -13.9960     2.3979 C.3     
  20 O20           -1.8451   -12.4124     3.0898 O.2     
  21 C21           -2.4628   -14.9782     2.9700 C.ar    
  22 C22           -2.5467   -15.3489     4.2988 C.ar    
  23 C23           -1.6389   -16.2500     4.8237 C.ar    
  24 C24           -0.6478   -16.7803     4.0195 C.ar    
  25 C25           -0.5645   -16.4102     2.6900 C.ar    
  26 C26           -1.4746   -15.5127     2.1642 C.ar    
  27 C27           -1.7900     2.2444    -0.4086 C.2     
  28 O28           -2.8511     1.6580    -0.4398 O.2     
  29 C29           -1.7627     3.7486    -0.3207 C.3     
  30 C30           -3.1741     4.2754    -0.2855 C.ar    
  31 C31           -3.8179     4.4471     0.9257 C.ar    
  32 C32           -5.1126     4.9304     0.9579 C.ar    
  33 C33           -5.7634     5.2424    -0.2211 C.ar    
  34 C34           -5.1193     5.0716    -1.4323 C.ar    
  35 C35           -3.8231     4.5924    -1.4642 C.ar    
  36 C36            0.5165   -16.9881     1.8133 C.3     
  37 N37            0.0301   -18.2194     1.1860 N.am    
  38 C38           -0.5957   -18.1666    -0.0065 C.2     
  39 C39            0.2241   -19.5083     1.8550 C.3     
  40 C40           -1.0025   -19.4406    -0.7011 C.3     
  41 O41           -0.8314   -17.0937    -0.5206 O.2     
  42 H42            0.2117     2.0215    -0.4988 H       
  43 H43            1.4698    -0.0626    -0.7198 H       
  44 H44            1.3331    -2.5576    -0.6621 H       
  45 H45           -1.5246    -4.3680    -1.1650 H       
  46 H46            0.0585    -4.4844    -0.3597 H       
  47 H47           -1.0301    -4.1039     1.8355 H       
  48 H48           -2.6132    -3.9875     1.0302 H       
  49 H49           -2.3520    -6.3028     0.1820 H       
  50 H50           -0.7688    -6.4192     0.9872 H       
  51 H51           -1.8574    -6.0387     3.1824 H       
  52 H52           -3.4406    -5.9224     2.3771 H       
  53 H53           -4.5025   -11.6917     1.6964 H       
  54 H54           -4.4019   -14.0882     2.9249 H       
  55 H55           -3.6025   -14.2066     1.3390 H       
  56 H56           -3.3211   -14.9345     4.9272 H       
  57 H57           -1.7040   -16.5392     5.8622 H       
  58 H58            0.0618   -17.4837     4.4297 H       
  59 H59           -1.4095   -15.2235     1.1257 H       
  60 H60           -1.2396     4.0500     0.5869 H       
  61 H61           -1.2450     4.1540    -1.1900 H       
  62 H62           -3.3094     4.2034     1.8468 H       
  63 H63           -5.6158     5.0638     1.9041 H       
  64 H64           -6.7752     5.6193    -0.1960 H       
  65 H65           -5.6279     5.3150    -2.3534 H       
  66 H66           -3.3199     4.4590    -2.4105 H       
  67 H67            0.7817   -16.2668     1.0403 H       
  68 H68            1.3949   -17.2112     2.4188 H       
  69 H69           -0.6711   -19.7611     2.4230 H       
  70 H70            0.4110   -20.2805     1.1087 H       
  71 H71            1.0767   -19.4422     2.5308 H       
  72 H72           -0.7940   -20.2909    -0.0518 H       
  73 H73           -2.0686   -19.4076    -0.9255 H       
  74 H74           -0.4391   -19.5447    -1.6284 H       
@<TRIPOS>BOND
   1    1    2 1
   2    1   27 am
   3    1   42 1
   4    2    3 ar
   5    2    4 ar
   6    3    7 ar
   7    3   43 1
   8    4    5 ar
   9    5    6 ar
  10    6    7 ar
  11    6    8 1
  12    7   44 1
  13    8    9 1
  14    8   45 1
  15    8   46 1
  16    9   10 1
  17    9   47 1
  18    9   48 1
  19   10   11 1
  20   10   49 1
  21   10   50 1
  22   11   12 1
  23   11   51 1
  24   11   52 1
  25   12   13 2
  26   12   16 1
  27   13   14 1
  28   14   15 2
  29   15   16 1
  30   15   17 1
  31   17   18 am
  32   17   53 1
  33   18   19 1
  34   18   20 2
  35   19   21 1
  36   19   54 1
  37   19   55 1
  38   21   22 ar
  39   21   26 ar
  40   22   23 ar
  41   22   56 1
  42   23   24 ar
  43   23   57 1
  44   24   25 ar
  45   24   58 1
  46   25   26 ar
  47   25   36 1
  48   26   59 1
  49   27   28 2
  50   27   29 1
  51   29   30 1
  52   29   60 1
  53   29   61 1
  54   30   31 ar
  55   30   35 ar
  56   31   32 ar
  57   31   62 1
  58   32   33 ar
  59   32   63 1
  60   33   34 ar
  61   33   64 1
  62   34   35 ar
  63   34   65 1
  64   35   66 1
  65   36   37 1
  66   36   67 1
  67   36   68 1
  68   37   38 am
  69   37   39 1
  70   38   40 1
  71   38   41 2
  72   39   69 1
  73   39   70 1
  74   39   71 1
  75   40   72 1
  76   40   73 1
  77   40   74 1

#	End of record

