#	Name: ASD03092586
#	Creating user name:	WinNT
#	Creation time:	15. 06. 2019 20:32

#	Modifying user name:	WinNT
#	Modification time:	15. 06. 2019 20:32

#	Program:	/corina/corina34_cracker 3.40 0067  02.08.2006

@<TRIPOS>MOLECULE
ASD03092586
  39   41    0    0    0
SMALL
NO_CHARGES


@<TRIPOS>ATOM
   1 N1            -0.0169     1.3951     0.0097 N.pl3   
   2 N2             0.0021    -0.0041     0.0020 N.2     
   3 C3             1.2418    -0.4097    -0.0120 C.2     
   4 C4             2.0751     0.7313    -0.0138 C.2     
   5 C5             1.2504     1.8383    -0.0000 C.2     
   6 C6             3.5493     0.7384    -0.0274 C.2     
   7 O7             4.1523     1.7944    -0.0271 O.2     
   8 N8             4.2287    -0.4256    -0.0402 N.am    
   9 C9             5.6936    -0.4186    -0.0537 C.3     
  10 N10            7.5939    -5.7113    -0.3742 N.pl3   
  11 C11            7.6381    -5.8624    -1.7334 C.2     
  12 C12            7.2273    -4.7338    -2.3329 C.2     
  13 C13            6.8926    -3.7821    -1.2708 C.ar    
  14 C14            6.4206    -2.4681    -1.2583 C.ar    
  15 C15            6.2026    -1.8369    -0.0664 C.ar    
  16 C16            6.4468    -2.4916     1.1333 C.ar    
  17 C17            6.9131    -3.7877     1.1441 C.ar    
  18 C18            7.1421    -4.4497    -0.0580 C.ar    
  19 C19            7.9659    -6.7406     0.5997 C.3     
  20 F20            8.3720    -7.8965    -0.0757 F       
  21 F21            9.0168    -6.2718     1.3952 F       
  22 F22            6.8641    -7.0365     1.4094 F       
  23 C23           -1.2173     2.2349     0.0202 C.3     
  24 C24           -2.1156     1.8553    -1.1587 C.3     
  25 F25           -2.4861     0.5107    -1.0486 F       
  26 F26           -3.2619     2.6572    -1.1486 F       
  27 F27           -1.4202     2.0508    -2.3568 F       
  28 H28            1.5732    -1.4376    -0.0201 H       
  29 H29            1.5666     2.8709     0.0025 H       
  30 H30            3.7477    -1.2679    -0.0405 H       
  31 H31            6.0462     0.1020    -0.9441 H       
  32 H32            6.0627     0.0920     0.8357 H       
  33 H33            7.9567    -6.7571    -2.2477 H       
  34 H34            7.1569    -4.5604    -3.3965 H       
  35 H35            6.2292    -1.9522    -2.1877 H       
  36 H36            6.2697    -1.9794     2.0675 H       
  37 H37            7.1004    -4.2883     2.0826 H       
  38 H38           -1.7591     2.0825     0.9537 H       
  39 H39           -0.9286     3.2825    -0.0655 H       
@<TRIPOS>BOND
   1    1    2 1
   2    1    5 1
   3    1   23 1
   4    2    3 2
   5    3    4 1
   6    3   28 1
   7    4    5 2
   8    4    6 1
   9    5   29 1
  10    6    7 2
  11    6    8 am
  12    8    9 1
  13    8   30 1
  14    9   15 1
  15    9   31 1
  16    9   32 1
  17   10   11 1
  18   10   18 1
  19   10   19 1
  20   11   12 2
  21   11   33 1
  22   12   13 1
  23   12   34 1
  24   13   14 ar
  25   13   18 ar
  26   14   15 ar
  27   14   35 1
  28   15   16 ar
  29   16   17 ar
  30   16   36 1
  31   17   18 ar
  32   17   37 1
  33   19   20 1
  34   19   21 1
  35   19   22 1
  36   23   24 1
  37   23   38 1
  38   23   39 1
  39   24   25 1
  40   24   26 1
  41   24   27 1

#	End of record

