#	Name: ASD01917244
#	Creating user name:	WinNT
#	Creation time:	15. 06. 2019 20:08

#	Modifying user name:	WinNT
#	Modification time:	15. 06. 2019 20:08

#	Program:	/corina/corina34_cracker 3.40 0067  02.08.2006

@<TRIPOS>MOLECULE
ASD01917244
  43   46    0    0    0
SMALL
NO_CHARGES


@<TRIPOS>ATOM
   1 C1            -0.0785     1.0599    -0.4286 C.ar    
   2 C2            -0.1049    -0.2892    -0.7265 C.ar    
   3 C3            -1.3284    -0.9288    -0.8560 C.ar    
   4 C4            -2.4843    -0.1839    -0.6801 C.ar    
   5 C5            -2.3795     1.1621    -0.3836 C.ar    
   6 N6            -1.1986     1.7361    -0.2626 N.ar    
   7 C7            -3.6293     1.9818    -0.1908 C.3     
   8 O8            -4.7770     1.1483    -0.3643 O.3     
   9 C9            -5.9947     1.7372    -0.2228 C.2     
  10 N10           -6.2050     3.0064     0.0592 N.2     
  11 N11           -7.5749     3.2246     0.1276 N.pl3   
  12 C12           -8.2027     2.0289    -0.1409 C.2     
  13 C13           -7.2331     1.0947    -0.3590 C.2     
  14 C14           -8.3294     4.4418     0.4317 C.3     
  15 C15           -9.6790     4.3902    -0.2841 C.3     
  16 N16          -10.3506     3.1054    -0.1229 N.am    
  17 C17           -9.6716     1.9343    -0.1727 C.2     
  18 O18          -10.2442     0.8632    -0.2402 O.2     
  19 C19          -11.7336     3.0820     0.0893 C.ar    
  20 C20          -12.5988     3.4842    -0.9198 C.ar    
  21 C21          -13.9634     3.4603    -0.7083 C.ar    
  22 C22          -14.4690     3.0359     0.5090 C.ar    
  23 C23          -13.6081     2.6349     1.5167 C.ar    
  24 C24          -12.2430     2.6513     1.3073 C.ar    
  25 F25          -15.8042     3.0134     0.7139 F       
  26 C26            1.2455     1.7653    -0.2856 C.3     
  27 H27            0.8158    -0.8384    -0.8572 H       
  28 H28           -1.3797    -1.9822    -1.0886 H       
  29 H29           -3.4543    -0.6493    -0.7739 H       
  30 H30           -3.6354     2.4041     0.8140 H       
  31 H31           -3.6516     2.7881    -0.9239 H       
  32 H32           -7.3905     0.0511    -0.5882 H       
  33 H33           -8.4904     4.5110     1.5075 H       
  34 H34           -7.7693     5.3122     0.0901 H       
  35 H35          -10.3203     5.1755     0.1161 H       
  36 H36           -9.5214     4.5744    -1.3468 H       
  37 H37          -12.2049     3.8156    -1.8692 H       
  38 H38          -14.6366     3.7733    -1.4926 H       
  39 H39          -14.0045     2.3045     2.4655 H       
  40 H40          -11.5719     2.3385     2.0935 H       
  41 H41            1.5549     2.1571    -1.2545 H       
  42 H42            1.1446     2.5871     0.4233 H       
  43 H43            1.9946     1.0618     0.0779 H       
@<TRIPOS>BOND
   1    1    2 ar
   2    1   26 1
   3    1    6 ar
   4    2    3 ar
   5    2   27 1
   6    3    4 ar
   7    3   28 1
   8    4    5 ar
   9    4   29 1
  10    5    6 ar
  11    5    7 1
  12    7    8 1
  13    7   30 1
  14    7   31 1
  15    8    9 1
  16    9   10 2
  17    9   13 1
  18   10   11 1
  19   11   12 1
  20   11   14 1
  21   12   13 2
  22   12   17 1
  23   13   32 1
  24   14   15 1
  25   14   33 1
  26   14   34 1
  27   15   16 1
  28   15   35 1
  29   15   36 1
  30   16   17 am
  31   16   19 1
  32   17   18 2
  33   19   20 ar
  34   19   24 ar
  35   20   21 ar
  36   20   37 1
  37   21   22 ar
  38   21   38 1
  39   22   23 ar
  40   22   25 1
  41   23   24 ar
  42   23   39 1
  43   24   40 1
  44   26   41 1
  45   26   42 1
  46   26   43 1

#	End of record

