#	Name: ASD05513014
#	Creating user name:	WinNT
#	Creation time:	15. 06. 2019 21:01

#	Modifying user name:	WinNT
#	Modification time:	15. 06. 2019 21:01

#	Program:	/corina/corina34_cracker 3.40 0067  02.08.2006

@<TRIPOS>MOLECULE
ASD05513014
  23   24    0    0    0
SMALL
NO_CHARGES


@<TRIPOS>ATOM
   1 C1            -0.0107     1.3989     0.4129 C.2     
   2 C2             0.0021    -0.0041     0.0020 C.2     
   3 C3             1.1849    -0.6683    -0.1156 C.2     
   4 C4             2.5235    -0.0885    -0.3457 C.ar    
   5 C5             3.4215    -1.1650    -0.3934 C.ar    
   6 N6             2.7266    -2.3570    -0.2090 N.am    
   7 C7             1.4123    -2.1367    -0.0340 C.2     
   8 C8             2.9813     1.2183    -0.5047 C.ar    
   9 C9             4.3257     1.4521    -0.7101 C.ar    
  10 C10            5.2156     0.3918    -0.7582 C.ar    
  11 C11            4.7723    -0.9080    -0.6010 C.ar    
  12 O12            0.5617    -2.9845     0.1494 O.2     
  13 O13            1.0166     1.9351     0.7723 O.2     
  14 C14           -1.2987     2.1807     0.3843 C.3     
  15 Cl15           5.9043    -2.2227    -0.6639 Cl      
  16 H16           -0.9266    -0.5137    -0.2082 H       
  17 H17            3.1392    -3.2349    -0.2033 H       
  18 H18            2.2867     2.0444    -0.4678 H       
  19 H19            4.6844     2.4633    -0.8337 H       
  20 H20            6.2663     0.5826    -0.9196 H       
  21 H21           -2.1060     1.5382     0.0326 H       
  22 H22           -1.5295     2.5376     1.3880 H       
  23 H23           -1.1923     3.0317    -0.2884 H       
@<TRIPOS>BOND
   1    1    2 1
   2    1   13 2
   3    1   14 1
   4    2    3 2
   5    2   16 1
   6    3    4 1
   7    3    7 1
   8    4    5 ar
   9    4    8 ar
  10    5    6 1
  11    5   11 ar
  12    6    7 am
  13    6   17 1
  14    7   12 2
  15    8    9 ar
  16    8   18 1
  17    9   10 ar
  18    9   19 1
  19   10   11 ar
  20   10   20 1
  21   11   15 1
  22   14   21 1
  23   14   22 1
  24   14   23 1

#	End of record

