#	Name: ASD00431305
#	Creating user name:	WinNT
#	Creation time:	15. 06. 2019 18:35

#	Modifying user name:	WinNT
#	Modification time:	15. 06. 2019 18:35

#	Program:	/corina/corina34_cracker 3.40 0067  02.08.2006

@<TRIPOS>MOLECULE
ASD00431305
  55   59    0    0    0
SMALL
NO_CHARGES


@<TRIPOS>ATOM
   1 C1            -0.2668     1.4987     0.0358 C.2     
   2 N2            -0.1096     0.1635     0.0841 N.am    
   3 C3             1.1912    -0.1676     0.1729 C.2     
   4 C4             1.9935     1.0739     0.1857 C.ar    
   5 C5             3.3494     1.3492     0.2607 C.ar    
   6 C6             3.7850     2.6651     0.2494 C.ar    
   7 C7             2.8765     3.7033     0.1640 C.ar    
   8 C8             1.5171     3.4430     0.0884 C.ar    
   9 C9             1.0670     2.1325     0.0986 C.ar    
  10 O10           -1.3269     2.0849    -0.0503 O.2     
  11 O11            1.6326    -1.2974     0.2332 O.2     
  12 C12           -1.2101    -0.8027     0.0456 C.3     
  13 C13           -1.0438    -1.7170    -1.1699 C.3     
  14 O14           -0.1120    -2.1154     1.9301 O.3     
  15 N15           -0.4068    -2.7460     2.9187 N.2     
  16 C16           -1.7074    -2.7764     3.0960 C.2     
  17 C17           -2.2694    -2.0310     2.0190 C.2     
  18 C18           -1.1949    -1.6319     1.3038 C.2     
  19 S19           -4.1880    -3.4735     4.4029 S.3     
  20 C20           -4.0122    -4.4165     5.8179 C.2     
  21 N21           -2.7573    -4.6512     6.0496 N.2     
  22 C22           -1.8872    -4.1494     5.2009 C.2     
  23 C23           -2.4394    -3.4473     4.1893 C.2     
  24 O24           -5.0365    -4.8552     6.5875 O.3     
  25 C25           -4.7519    -5.7238     7.5944 C.ar    
  26 C26           -5.7350    -6.0694     8.5120 C.ar    
  27 C27           -5.4453    -6.9525     9.5346 C.ar    
  28 C28           -4.1724    -7.4933     9.6440 C.ar    
  29 C29           -3.1907    -7.1474     8.7276 C.ar    
  30 C30           -3.4814    -6.2690     7.7015 C.ar    
  31 O31           -3.8873    -8.3622    10.6503 O.3     
  32 C32           -4.9011    -8.5686    11.6360 C.3     
  33 C33           -5.7530    -9.7781    11.2458 C.3     
  34 C34           -4.2465    -8.8230    12.9953 C.3     
  35 Cl35          -7.3275    -5.3919     8.3749 Cl      
  36 H36            4.0638     0.5421     0.3280 H       
  37 H37            4.8417     2.8806     0.3082 H       
  38 H38            3.2282     4.7244     0.1565 H       
  39 H39            0.8118     4.2582     0.0222 H       
  40 H40           -2.1585    -0.2704    -0.0273 H       
  41 H41           -1.8626    -2.4359    -1.1985 H       
  42 H42           -1.0548    -1.1172    -2.0799 H       
  43 H43           -0.0954    -2.2493    -1.0970 H       
  44 H44           -3.3122    -1.8319     1.8205 H       
  45 H45           -0.8211    -4.2873     5.3048 H       
  46 H46           -6.2095    -7.2213    10.2488 H       
  47 H47           -2.1997    -7.5681     8.8135 H       
  48 H48           -2.7179    -6.0037     6.9853 H       
  49 H49           -5.5338    -7.6832    11.6974 H       
  50 H50           -6.2193    -9.5969    10.2775 H       
  51 H51           -5.1203   -10.6636    11.1844 H       
  52 H52           -6.5263    -9.9356    11.9977 H       
  53 H53           -3.6395    -7.9613    13.2732 H       
  54 H54           -5.0197    -8.9805    13.7472 H       
  55 H55           -3.6138    -9.7084    12.9338 H       
@<TRIPOS>BOND
   1    1    2 am
   2    1    9 1
   3    1   10 2
   4    2    3 am
   5    2   12 1
   6    3    4 1
   7    3   11 2
   8    4    5 ar
   9    4    9 ar
  10    5    6 ar
  11    5   36 1
  12    6    7 ar
  13    6   37 1
  14    7    8 ar
  15    7   38 1
  16    8    9 ar
  17    8   39 1
  18   12   13 1
  19   12   18 1
  20   12   40 1
  21   13   41 1
  22   13   42 1
  23   13   43 1
  24   14   15 1
  25   14   18 1
  26   15   16 2
  27   16   17 1
  28   16   23 1
  29   17   18 2
  30   17   44 1
  31   19   20 1
  32   19   23 1
  33   20   21 2
  34   20   24 1
  35   21   22 1
  36   22   23 2
  37   22   45 1
  38   24   25 1
  39   25   26 ar
  40   25   30 ar
  41   26   27 ar
  42   26   35 1
  43   27   28 ar
  44   27   46 1
  45   28   29 ar
  46   28   31 1
  47   29   30 ar
  48   29   47 1
  49   30   48 1
  50   31   32 1
  51   32   33 1
  52   32   34 1
  53   32   49 1
  54   33   50 1
  55   33   51 1
  56   33   52 1
  57   34   53 1
  58   34   54 1
  59   34   55 1

#	End of record

