#	Name: ASD09490001
#	Creating user name:	WinNT
#	Creation time:	15. 06. 2019 21:22

#	Modifying user name:	WinNT
#	Modification time:	15. 06. 2019 21:22

#	Program:	/corina/corina34_cracker 3.40 0067  02.08.2006

@<TRIPOS>MOLECULE
ASD09490001
  39   41    0    0    0
SMALL
NO_CHARGES


@<TRIPOS>ATOM
   1 C1             0.0135     1.3554     0.0114 C.ar    
   2 C2            -1.0736     1.7631     0.8110 C.ar    
   3 C3            -2.2612     1.0558     0.8211 C.ar    
   4 C4            -2.3856    -0.0748     0.0307 C.ar    
   5 C5            -1.3159    -0.4875    -0.7647 C.ar    
   6 C6            -0.1453     0.2055    -0.7853 C.ar    
   7 N7             1.0430     2.1955     0.1732 N.2     
   8 N8             0.9379     3.1861     0.9633 N.2     
   9 S9            -0.4806     3.2116     1.6271 S.3     
  10 N10           -3.5813    -0.8020     0.0303 N.am    
  11 C11           -4.7606    -0.1598     0.1463 C.2     
  12 N12           -5.9151    -0.8487     0.0517 N.am    
  13 O13           -4.7829     1.0409     0.3364 O.2     
  14 C14           -7.1970    -0.1507     0.1778 C.3     
  15 C15           -8.3414    -1.1558     0.0330 C.3     
  16 C16           -9.6600    -0.4379     0.1628 C.2     
  17 C17          -10.2037    -0.2089     1.5426 C.3     
  18 C18          -11.2866     0.8718     1.5098 C.3     
  19 C19          -12.2789     0.5303     0.3910 C.3     
  20 C20          -11.5620     0.6764    -0.9530 C.3     
  21 C21          -10.2506    -0.0525    -0.9227 C.2     
  22 H22           -3.0843     1.3816     1.4398 H       
  23 H23           -1.4206    -1.3702    -1.3782 H       
  24 H24            0.6688    -0.1328    -1.4092 H       
  25 H25           -3.5613    -1.7681    -0.0536 H       
  26 H26           -5.8973    -1.8066    -0.1000 H       
  27 H27           -7.2553     0.3280     1.1553 H       
  28 H28           -7.2770     0.6059    -0.6027 H       
  29 H29           -8.2830    -1.6346    -0.9445 H       
  30 H30           -8.2613    -1.9125     0.8135 H       
  31 H31          -10.6311    -1.1373     1.9212 H       
  32 H32           -9.3955     0.1094     2.2012 H       
  33 H33          -11.8079     0.8973     2.4667 H       
  34 H34          -10.8305     1.8417     1.3116 H       
  35 H35          -12.6274    -0.4955     0.5108 H       
  36 H36          -13.1259     1.2153     0.4308 H       
  37 H37          -12.1889     0.2640    -1.7436 H       
  38 H38          -11.3802     1.7324    -1.1527 H       
  39 H39           -9.7730    -0.2751    -1.8654 H       
@<TRIPOS>BOND
   1    1    2 ar
   2    1    7 1
   3    1    6 ar
   4    2    3 ar
   5    2    9 1
   6    3    4 ar
   7    3   22 1
   8    4    5 ar
   9    4   10 1
  10    5    6 ar
  11    5   23 1
  12    6   24 1
  13    7    8 2
  14    8    9 1
  15   10   11 am
  16   10   25 1
  17   11   12 am
  18   11   13 2
  19   12   14 1
  20   12   26 1
  21   14   15 1
  22   14   27 1
  23   14   28 1
  24   15   16 1
  25   15   29 1
  26   15   30 1
  27   16   17 1
  28   16   21 2
  29   17   18 1
  30   17   31 1
  31   17   32 1
  32   18   19 1
  33   18   33 1
  34   18   34 1
  35   19   20 1
  36   19   35 1
  37   19   36 1
  38   20   21 1
  39   20   37 1
  40   20   38 1
  41   21   39 1

#	End of record

