#	Name: ASD01910357
#	Creating user name:	WinNT
#	Creation time:	15. 06. 2019 19:55

#	Modifying user name:	WinNT
#	Modification time:	15. 06. 2019 19:55

#	Program:	/corina/corina34_cracker 3.40 0067  02.08.2006

@<TRIPOS>MOLECULE
ASD01910357
  47   49    0    0    0
SMALL
NO_CHARGES


@<TRIPOS>ATOM
   1 C1            -0.0173     1.4278     0.0099 C.ar    
   2 C2             0.0021    -0.0041     0.0020 C.1     
   3 C3             0.0180    -1.1779    -0.0044 C.1     
   4 C4             0.0374    -2.6098    -0.0123 C.ar    
   5 C5            -1.1646    -3.3262    -0.0047 C.ar    
   6 C6            -1.1454    -4.6917    -0.0127 C.ar    
   7 C7             0.0749    -5.3739    -0.0280 C.ar    
   8 C8             1.2762    -4.6588    -0.0352 C.ar    
   9 C9             1.2584    -3.2932    -0.0335 C.ar    
  10 C10            0.0949    -6.8500    -0.0362 C.2     
  11 O11           -0.9496    -7.4722    -0.0295 O.2     
  12 N12            1.2711    -7.5079    -0.0509 N.am    
  13 C13            1.1814     2.1464     0.0023 C.ar    
  14 C14            1.1547     3.5253     0.0100 C.ar    
  15 C15           -0.0549     4.1973     0.0257 C.ar    
  16 C16           -1.2459     3.4926     0.0333 C.ar    
  17 C17           -1.2352     2.1136     0.0194 C.ar    
  18 C18            1.2910    -8.9728    -0.0590 C.3     
  19 C19            2.7402    -9.4631    -0.0755 C.3     
  20 C20            2.7612   -10.9641    -0.2076 C.ar    
  21 C21            3.3883   -11.5541    -1.2891 C.ar    
  22 C22            3.4075   -12.9310    -1.4103 C.ar    
  23 C23            2.8000   -13.7179    -0.4498 C.ar    
  24 C24            2.1736   -13.1280     0.6321 C.ar    
  25 C25            2.1582   -11.7513     0.7556 C.ar    
  26 C26            3.4311    -9.0561     1.2275 C.3     
  27 H27           -2.1073    -2.7994     0.0079 H       
  28 H28           -2.0730    -5.2448    -0.0068 H       
  29 H29            2.2185    -5.1864    -0.0463 H       
  30 H30            2.1864    -2.7409    -0.0390 H       
  31 H31            2.1044    -7.0116    -0.0562 H       
  32 H32            2.1262     1.6233    -0.0092 H       
  33 H33            2.0802     4.0819     0.0042 H       
  34 H34           -0.0695     5.2772     0.0324 H       
  35 H35           -2.1861     4.0239     0.0459 H       
  36 H36           -2.1654     1.5649     0.0253 H       
  37 H37            0.7906    -9.3479     0.8338 H       
  38 H38            0.7736    -9.3383    -0.9461 H       
  39 H39            3.2652    -9.0166    -0.9200 H       
  40 H40            3.8629   -10.9393    -2.0395 H       
  41 H41            3.8968   -13.3919    -2.2556 H       
  42 H42            2.8144   -14.7936    -0.5449 H       
  43 H43            1.6987   -13.7428     1.3823 H       
  44 H44            1.6688   -11.2904     1.6008 H       
  45 H45            4.4636    -9.4054     1.2158 H       
  46 H46            3.4159    -7.9704     1.3231 H       
  47 H47            2.9061    -9.5026     2.0720 H       
@<TRIPOS>BOND
   1    1    2 1
   2    1   13 ar
   3    1   17 ar
   4    2    3 3
   5    3    4 1
   6    4    5 ar
   7    4    9 ar
   8    5    6 ar
   9    5   27 1
  10    6    7 ar
  11    6   28 1
  12    7    8 ar
  13    7   10 1
  14    8    9 ar
  15    8   29 1
  16    9   30 1
  17   10   11 2
  18   10   12 am
  19   12   18 1
  20   12   31 1
  21   13   14 ar
  22   13   32 1
  23   14   15 ar
  24   14   33 1
  25   15   16 ar
  26   15   34 1
  27   16   17 ar
  28   16   35 1
  29   17   36 1
  30   18   19 1
  31   18   37 1
  32   18   38 1
  33   19   20 1
  34   19   26 1
  35   19   39 1
  36   20   21 ar
  37   20   25 ar
  38   21   22 ar
  39   21   40 1
  40   22   23 ar
  41   22   41 1
  42   23   24 ar
  43   23   42 1
  44   24   25 ar
  45   24   43 1
  46   25   44 1
  47   26   45 1
  48   26   46 1
  49   26   47 1

#	End of record

