#	Name: ASD01880393
#	Creating user name:	WinNT
#	Creation time:	15. 06. 2019 19:40

#	Modifying user name:	WinNT
#	Modification time:	15. 06. 2019 19:40

#	Program:	/corina/corina34_cracker 3.40 0067  02.08.2006

@<TRIPOS>MOLECULE
ASD01880393
  38   39    0    0    0
SMALL
NO_CHARGES


@<TRIPOS>ATOM
   1 C1            -0.0158     1.3166     0.0093 C.ar    
   2 N2             0.0021    -0.0041     0.0020 N.ar    
   3 C3             1.1445    -0.6746    -0.0125 C.ar    
   4 C4             2.3648     0.0485    -0.0202 C.ar    
   5 C5             2.2891     1.4440    -0.0120 C.ar    
   6 N6             1.0857     2.0309     0.0026 N.ar    
   7 C7             3.7373    -0.4211    -0.0353 C.2     
   8 C8             4.6485     0.5323    -0.0385 C.2     
   9 S9             3.9102     2.1228    -0.0232 S.3     
  10 C10            6.1352     0.2862    -0.0535 C.3     
  11 C11            6.6251     0.2107    -1.5010 C.3     
  12 C12            8.1345    -0.0391    -1.5161 C.3     
  13 N13            1.1474    -2.0578    -0.0195 N.pl3   
  14 C14           -0.1198    -2.7930    -0.0109 C.3     
  15 C15            0.1629    -4.2966    -0.0212 C.3     
  16 C16            2.0502    -5.2278     1.2167 C.2     
  17 C17            0.8583    -4.6858     1.2579 C.2     
  18 C18           -1.1365    -5.0513    -0.1362 C.2     
  19 C19           -1.3425    -5.8493    -1.1544 C.2     
  20 H20           -0.9682     1.8258     0.0165 H       
  21 H21            3.9931    -1.4704    -0.0429 H       
  22 H22            6.6437     1.1022     0.4601 H       
  23 H23            6.3530    -0.6539     0.4533 H       
  24 H24            6.1166    -0.6053    -2.0145 H       
  25 H25            6.4073     1.1508    -2.0078 H       
  26 H26            8.6430     0.7768    -1.0026 H       
  27 H27            8.3523    -0.9793    -1.0093 H       
  28 H28            8.4835    -0.0930    -2.5474 H       
  29 H29            1.9884    -2.5410    -0.0301 H       
  30 H30           -0.6832    -2.5354     0.8859 H       
  31 H31           -0.7005    -2.5264    -0.8939 H       
  32 H32            0.8011    -4.5405    -0.8705 H       
  33 H33            2.5486    -5.5067     2.1333 H       
  34 H34            2.5345    -5.3957     0.2660 H       
  35 H35            0.3740    -4.5179     2.2085 H       
  36 H36           -1.8978    -4.9341     0.6208 H       
  37 H37           -0.5811    -5.9665    -1.9114 H       
  38 H38           -2.2737    -6.3902    -1.2368 H       
@<TRIPOS>BOND
   1    1    2 ar
   2    1    6 ar
   3    1   20 1
   4    2    3 ar
   5    3    4 ar
   6    3   13 1
   7    4    5 ar
   8    4    7 1
   9    5    6 ar
  10    5    9 1
  11    7    8 2
  12    7   21 1
  13    8    9 1
  14    8   10 1
  15   10   11 1
  16   10   22 1
  17   10   23 1
  18   11   12 1
  19   11   24 1
  20   11   25 1
  21   12   26 1
  22   12   27 1
  23   12   28 1
  24   13   14 1
  25   13   29 1
  26   14   15 1
  27   14   30 1
  28   14   31 1
  29   15   18 1
  30   15   17 1
  31   15   32 1
  32   16   17 2
  33   16   33 1
  34   16   34 1
  35   17   35 1
  36   18   19 2
  37   18   36 1
  38   19   37 1
  39   19   38 1

#	End of record

