#	Name: ASD01900448
#	Creating user name:	WinNT
#	Creation time:	15. 06. 2019 19:51

#	Modifying user name:	WinNT
#	Modification time:	15. 06. 2019 19:51

#	Program:	/corina/corina34_cracker 3.40 0067  02.08.2006

@<TRIPOS>MOLECULE
ASD01900448
  37   40    0    0    0
SMALL
NO_CHARGES


@<TRIPOS>ATOM
   1 C1             0.3954     4.0189     0.2324 C.ar    
   2 C2             0.8796     4.9446     1.1763 C.ar    
   3 C3             2.2495     5.1985     1.2343 C.ar    
   4 C4             3.0765     4.5255     0.3566 C.ar    
   5 C5             2.5299     3.6253    -0.5488 C.ar    
   6 N6             1.2369     3.3975    -0.5905 N.ar    
   7 N7            -1.3623     4.8010     1.3805 N.2     
   8 N8            -0.2043     5.4141     1.8701 N.pl3   
   9 C9            -1.0576     3.9770     0.4133 C.2     
  10 N10           -1.9565     3.1899    -0.3130 N.pl3   
  11 C11           -3.3335     3.3344    -0.1122 C.ar    
  12 C12           -3.8559     4.5667     0.2599 C.ar    
  13 C13           -5.2157     4.7083     0.4581 C.ar    
  14 C14           -6.0597     3.6191     0.2853 C.ar    
  15 C15           -5.5381     2.3890    -0.0862 C.ar    
  16 C16           -4.1793     2.2475    -0.2902 C.ar    
  17 O17           -7.3983     3.7587     0.4809 O.3     
  18 C18           -8.1907     2.6757     0.2669 C.ar    
  19 C19           -8.2856     1.6828     1.2316 C.ar    
  20 C20           -9.0916     0.5827     1.0121 C.ar    
  21 C21           -9.8037     0.4701    -0.1690 C.ar    
  22 C22           -9.7104     1.4591    -1.1323 C.ar    
  23 C23           -8.9104     2.5638    -0.9141 C.ar    
  24 Cl24         -10.8150    -0.9140    -0.4429 Cl      
  25 Cl25          -5.8694     6.2477     0.9237 Cl      
  26 H26            2.6530     5.9031     1.9464 H       
  27 H27            4.1424     4.6984     0.3741 H       
  28 H28            3.1814     3.1021    -1.2330 H       
  29 H29           -0.1737     6.0673     2.5864 H       
  30 H30           -1.6254     2.5437    -0.9562 H       
  31 H31           -3.1992     5.4135     0.3946 H       
  32 H32           -6.1951     1.5424    -0.2200 H       
  33 H33           -3.7742     1.2904    -0.5841 H       
  34 H34           -7.7295     1.7700     2.1532 H       
  35 H35           -9.1658    -0.1903     1.7627 H       
  36 H36          -10.2670     1.3694    -2.0535 H       
  37 H37           -8.8413     3.3377    -1.6644 H       
@<TRIPOS>BOND
   1    1    2 ar
   2    1    6 ar
   3    1    9 1
   4    2    3 ar
   5    2    8 1
   6    3    4 ar
   7    3   26 1
   8    4    5 ar
   9    4   27 1
  10    5    6 ar
  11    5   28 1
  12    7    8 1
  13    7    9 2
  14    8   29 1
  15    9   10 1
  16   10   11 1
  17   10   30 1
  18   11   12 ar
  19   11   16 ar
  20   12   13 ar
  21   12   31 1
  22   13   14 ar
  23   13   25 1
  24   14   15 ar
  25   14   17 1
  26   15   16 ar
  27   15   32 1
  28   16   33 1
  29   17   18 1
  30   18   19 ar
  31   18   23 ar
  32   19   20 ar
  33   19   34 1
  34   20   21 ar
  35   20   35 1
  36   21   22 ar
  37   21   24 1
  38   22   23 ar
  39   22   36 1
  40   23   37 1

#	End of record

