#	Name: ASD05060104
#	Creating user name:	WinNT
#	Creation time:	15. 06. 2019 20:56

#	Modifying user name:	WinNT
#	Modification time:	15. 06. 2019 20:56

#	Program:	/corina/corina34_cracker 3.40 0067  02.08.2006

@<TRIPOS>MOLECULE
ASD05060104
  65   68    0    0    0
SMALL
NO_CHARGES


@<TRIPOS>ATOM
   1 C1             2.5567     0.6219    -1.9138 C.ar    
   2 C2             3.7878    -0.0039    -1.9084 C.ar    
   3 C3             4.6620     0.2024    -0.8575 C.ar    
   4 C4             4.3025     1.0339     0.1849 C.ar    
   5 C5             2.1943     1.4561    -0.8693 C.ar    
   6 C6             0.9241     2.2472    -0.6411 C.3     
   7 C7             3.0682     1.6620     0.1816 C.ar    
   8 C8             2.4449     2.6053     1.1881 C.3     
   9 C9             1.2877     3.2939     0.4334 C.3     
  10 C10            1.9064     1.8220     2.3870 C.3     
  11 C11            1.7593     4.5972    -0.2146 C.3     
  12 C12            0.5854     5.5739    -0.3089 C.3     
  13 C13            2.8541     5.2069     0.6225 C.2     
  14 C14            1.0080     6.8027    -1.1166 C.3     
  15 C15            1.5823     6.3557    -2.4624 C.3     
  16 C16           -0.2084     7.7000    -1.3539 C.3     
  17 C17            2.0725     7.5813    -0.3411 C.3     
  18 C18            2.5489     5.7144     2.0083 C.3     
  19 C19            4.0709     5.2959     0.1456 C.2     
  20 C20            0.4982     2.9312    -1.9145 C.ar    
  21 C21           -0.8057     3.3626    -2.0643 C.ar    
  22 C22           -1.2037     3.9927    -3.2313 C.ar    
  23 C23            1.0227     3.7603    -4.0961 C.ar    
  24 C24            1.4134     3.1323    -2.9309 C.ar    
  25 O25           -0.6362     4.8103    -5.4113 O.3     
  26 C26           -0.2903     4.1925    -4.2520 C.ar    
  27 C27           -2.6362     4.4450    -3.3593 C.3     
  28 C28           -2.7531     5.4735    -4.4870 C.3     
  29 C29           -2.0264     4.9208    -5.7198 C.3     
  30 H30            1.8761     0.4637    -2.7373 H       
  31 H31            4.0672    -0.6541    -2.7243 H       
  32 H32            5.6250    -0.2865    -0.8515 H       
  33 H33            4.9859     1.1945     1.0056 H       
  34 H34            0.1311     1.5930    -0.2787 H       
  35 H35            3.1752     3.3451     1.5158 H       
  36 H36            0.4441     3.4743     1.0997 H       
  37 H37            2.7278     1.3020     2.8800 H       
  38 H38            1.4382     2.5107     3.0903 H       
  39 H39            1.1695     1.0953     2.0450 H       
  40 H40            2.1399     4.3888    -1.2145 H       
  41 H41           -0.2546     5.0856    -0.8030 H       
  42 H42            0.2880     5.8824     0.6933 H       
  43 H43            0.8610     5.7158    -2.9707 H       
  44 H44            1.7887     7.2311    -3.0781 H       
  45 H45            2.5063     5.8017    -2.2971 H       
  46 H46           -0.6175     8.0184    -0.3951 H       
  47 H47            0.0927     8.5754    -1.9292 H       
  48 H48           -0.9668     7.1453    -1.9063 H       
  49 H49            3.0124     7.0295    -0.3605 H       
  50 H50            2.2155     8.5587    -0.8018 H       
  51 H51            1.7482     7.7103     0.6915 H       
  52 H52            1.4932     5.5564     2.2289 H       
  53 H53            3.1566     5.1748     2.7348 H       
  54 H54            2.7763     6.7790     2.0637 H       
  55 H55            4.2896     4.9322    -0.8476 H       
  56 H56            4.8554     5.7329     0.7455 H       
  57 H57           -1.5180     3.2073    -1.2676 H       
  58 H58            1.7387     3.9171    -4.8892 H       
  59 H59            2.4338     2.7985    -2.8130 H       
  60 H60           -3.2689     3.5865    -3.5843 H       
  61 H61           -2.9591     4.8969    -2.4214 H       
  62 H62           -3.8037     5.6409    -4.7241 H       
  63 H63           -2.2916     6.4114    -4.1782 H       
  64 H64           -2.1628     5.6000    -6.5614 H       
  65 H65           -2.4257     3.9384    -5.9719 H       
@<TRIPOS>BOND
   1    1    2 ar
   2    1    5 ar
   3    1   30 1
   4    2    3 ar
   5    2   31 1
   6    3    4 ar
   7    3   32 1
   8    4    7 ar
   9    4   33 1
  10    5    7 ar
  11    5    6 1
  12    6    9 1
  13    6   20 1
  14    6   34 1
  15    7    8 1
  16    8    9 1
  17    8   10 1
  18    8   35 1
  19    9   11 1
  20    9   36 1
  21   10   37 1
  22   10   38 1
  23   10   39 1
  24   11   12 1
  25   11   13 1
  26   11   40 1
  27   12   14 1
  28   12   41 1
  29   12   42 1
  30   13   18 1
  31   13   19 2
  32   14   15 1
  33   14   16 1
  34   14   17 1
  35   15   43 1
  36   15   44 1
  37   15   45 1
  38   16   46 1
  39   16   47 1
  40   16   48 1
  41   17   49 1
  42   17   50 1
  43   17   51 1
  44   18   52 1
  45   18   53 1
  46   18   54 1
  47   19   55 1
  48   19   56 1
  49   20   21 ar
  50   20   24 ar
  51   21   22 ar
  52   21   57 1
  53   22   27 1
  54   22   26 ar
  55   23   24 ar
  56   23   26 ar
  57   23   58 1
  58   24   59 1
  59   25   26 1
  60   25   29 1
  61   27   28 1
  62   27   60 1
  63   27   61 1
  64   28   29 1
  65   28   62 1
  66   28   63 1
  67   29   64 1
  68   29   65 1

#	End of record

