#	Name: ASD00960221
#	Creating user name:	WinNT
#	Creation time:	15. 06. 2019 18:53

#	Modifying user name:	WinNT
#	Modification time:	15. 06. 2019 18:53

#	Program:	/corina/corina34_cracker 3.40 0067  02.08.2006

@<TRIPOS>MOLECULE
ASD00960221
  39   42    0    0    0
SMALL
NO_CHARGES


@<TRIPOS>ATOM
   1 C1             0.6232     1.7602    -1.3289 C.2     
   2 C2             0.8481     0.4884    -1.8349 C.2     
   3 N3             1.6825     2.1091    -0.5357 N.pl3   
   4 C4             2.5835     1.0786    -0.5261 C.2     
   5 C5             2.0784     0.0503    -1.3362 C.2     
   6 N6             1.9748     3.2594     0.2113 N.2     
   7 C7             3.0866     3.3303     0.8959 C.2     
   8 N8             3.9690     2.3370     0.9127 N.2     
   9 C9             3.7647     1.2197     0.2350 C.2     
  10 N10            4.6980     0.2019     0.2698 N.pl3   
  11 C11            2.7236    -1.2482    -1.6097 C.2     
  12 N12            2.1633    -2.2928    -2.2871 N.pl3   
  13 C13            3.0961    -3.2982    -2.3152 C.2     
  14 C14            4.1847    -2.8454    -1.6632 C.2     
  15 N15            3.9401    -1.5961    -1.2474 N.2     
  16 C16           -0.5480     2.5923    -1.6026 C.2     
  17 O17           -1.4308     2.1793    -2.3308 O.2     
  18 O18           -0.6494     3.8179    -1.0475 O.3     
  19 C19           -1.8203     4.5759    -1.3582 C.3     
  20 C20           -1.7586     5.9069    -0.6540 C.ar    
  21 C21           -1.1718     6.9921    -1.2775 C.ar    
  22 C22           -1.1151     8.2130    -0.6315 C.ar    
  23 C23           -1.6457     8.3486     0.6377 C.ar    
  24 C24           -2.2334     7.2636     1.2608 C.ar    
  25 C25           -2.2939     6.0439     0.6131 C.ar    
  26 H26            0.1928    -0.0624    -2.4934 H       
  27 H27            3.2944     4.2242     1.4651 H       
  28 H28            5.6446     0.4106     0.2347 H       
  29 H29            4.4068    -0.7214     0.3292 H       
  30 H30            1.2744    -2.3192    -2.6745 H       
  31 H31            2.9799    -4.2693    -2.7734 H       
  32 H32            5.1010    -3.3951    -1.5064 H       
  33 H33           -1.8740     4.7367    -2.4350 H       
  34 H34           -2.7044     4.0307    -1.0278 H       
  35 H35           -0.7572     6.8861    -2.2691 H       
  36 H36           -0.6560     9.0607    -1.1183 H       
  37 H37           -1.6008     9.3022     1.1427 H       
  38 H38           -2.6476     7.3695     2.2526 H       
  39 H39           -2.7563     5.1971     1.0984 H       
@<TRIPOS>BOND
   1    1    2 2
   2    1    3 1
   3    1   16 1
   4    2    5 1
   5    2   26 1
   6    3    4 1
   7    3    6 1
   8    4    5 2
   9    4    9 1
  10    5   11 1
  11    6    7 2
  12    7    8 1
  13    7   27 1
  14    8    9 2
  15    9   10 1
  16   10   28 1
  17   10   29 1
  18   11   12 1
  19   11   15 2
  20   12   13 1
  21   12   30 1
  22   13   14 2
  23   13   31 1
  24   14   15 1
  25   14   32 1
  26   16   17 2
  27   16   18 1
  28   18   19 1
  29   19   20 1
  30   19   33 1
  31   19   34 1
  32   20   21 ar
  33   20   25 ar
  34   21   22 ar
  35   21   35 1
  36   22   23 ar
  37   22   36 1
  38   23   24 ar
  39   23   37 1
  40   24   25 ar
  41   24   38 1
  42   25   39 1

#	End of record

