#	Name: ASD01328021
#	Creating user name:	WinNT
#	Creation time:	15. 06. 2019 19:16

#	Modifying user name:	WinNT
#	Modification time:	15. 06. 2019 19:16

#	Program:	/corina/corina34_cracker 3.40 0067  02.08.2006

@<TRIPOS>MOLECULE
ASD01328021
  83   87    0    0    0
SMALL
NO_CHARGES


@<TRIPOS>ATOM
   1 C1             0.1882     1.9116    -0.0895 C.3     
   2 C2             0.1141     0.3932    -0.1135 C.3     
   3 C3             0.8742    -0.1641    -1.3026 C.3     
   4 C4             1.6335     2.4118    -0.0661 C.3     
   5 C5             1.5639     3.9350    -0.3443 C.3     
   6 C6             2.1998     2.2400     1.3416 C.3     
   7 C7             2.4848     1.7767    -1.1395 C.3     
   8 C8             3.9484     2.1845    -1.0746 C.3     
   9 C9             4.7886     1.3885    -0.0924 C.3     
  10 C10            4.6079    -0.1143    -0.1972 C.3     
  11 C11            5.4340    -0.6099    -1.3997 C.3     
  12 C12            5.1876    -0.8113     1.0459 C.3     
  13 C13            4.4846    -0.2364     2.2837 C.3     
  14 C14            6.6715    -0.5084     1.1934 C.3     
  15 C15            7.3351    -1.4264     2.2204 C.3     
  16 C16            7.1555    -2.8903     1.8329 C.3     
  17 C17            7.6694    -3.1095     0.4278 C.2     
  18 C18            7.9663    -3.7889     2.7655 C.3     
  19 C19            7.4245    -3.7342     4.1886 C.3     
  20 C20            5.9556    -4.1437     4.2239 C.3     
  21 C21            5.7891    -5.6073     3.8250 C.3     
  22 C22            5.1365    -3.2388     3.3032 C.3     
  23 C23            3.6799    -3.7191     3.3167 C.3     
  24 C24            5.6746    -3.2554     1.8797 C.3     
  25 H25            5.5487    -4.2646     1.4551 H       
  26 C26            4.8987    -2.2815     1.0093 C.2     
  27 C27            3.9772    -2.8020     0.2408 C.2     
  28 C28            3.0957    -2.0258    -0.6912 C.3     
  29 C29            3.1553    -0.5316    -0.3580 C.3     
  30 C30            2.3399     0.2809    -1.3458 C.3     
  31 C31            2.7844    -0.0124    -2.8013 C.3     
  32 O32            6.9235    -3.5149    -0.4319 O.2     
  33 O33            8.9543    -2.8538     0.1356 O.3     
  34 O34            0.7820     4.5691     0.6699 O.3     
  35 O35           -0.4778     2.4439    -1.2394 O.3     
  36 O36            0.5572    -0.1792     1.1107 O.3     
  37 H37            2.1118     2.2290    -2.1077 H       
  38 H38            2.6555    -0.4211     0.6274 H       
  39 H39           -0.3239     2.2820     0.8070 H       
  40 H40           -0.9520     0.1131    -0.2338 H       
  41 H41            0.8325    -1.2572    -1.2870 H       
  42 H42            0.3872     0.1676    -2.2298 H       
  43 H43            2.5711     4.3515    -0.3401 H       
  44 H44            1.1040     4.1059    -1.3176 H       
  45 H45            2.1723     1.1860     1.6182 H       
  46 H46            3.2301     2.5949     1.3645 H       
  47 H47            1.6011     2.8164     2.0469 H       
  48 H48            4.3918     2.0923    -2.0785 H       
  49 H49            4.0292     3.2507    -0.8189 H       
  50 H50            5.8557     1.6040    -0.3377 H       
  51 H51            4.6603     1.7732     0.9110 H       
  52 H52            6.4948    -0.4607    -1.1980 H       
  53 H53            5.2405    -1.6703    -1.5612 H       
  54 H54            5.1512    -0.0492    -2.2906 H       
  55 H55            3.4308    -0.5142     2.2650 H       
  56 H56            4.9499    -0.6366     3.1845 H       
  57 H57            4.5741     0.8500     2.2805 H       
  58 H58            7.2183    -0.5548     0.2599 H       
  59 H59            6.7738     0.5291     1.5625 H       
  60 H60            8.4062    -1.1986     2.2584 H       
  61 H61            6.9125    -1.2507     3.2076 H       
  62 H62            7.9467    -4.8118     2.3913 H       
  63 H63            9.0071    -3.4453     2.7654 H       
  64 H64            8.0039    -4.4102     4.8236 H       
  65 H65            7.5281    -2.7192     4.5813 H       
  66 H66            5.5823    -4.0170     5.2502 H       
  67 H67            6.3457    -6.2383     4.5179 H       
  68 H68            4.7330    -5.8750     3.8580 H       
  69 H69            6.1697    -5.7539     2.8142 H       
  70 H70            5.1765    -2.2265     3.7117 H       
  71 H71            3.2893    -3.6664     4.3329 H       
  72 H72            3.0817    -3.0832     2.6640 H       
  73 H73            3.6336    -4.7489     2.9626 H       
  74 H74            3.8487    -3.8771     0.2808 H       
  75 H75            3.3897    -2.2298    -1.7150 H       
  76 H76            2.0642    -2.3770    -0.5542 H       
  77 H77            2.0721     0.4333    -3.4956 H       
  78 H78            3.7732     0.4134    -2.9719 H       
  79 H79            2.8206    -1.0902    -2.9599 H       
  80 H80            9.2365    -3.0091    -0.7762 H       
  81 H81            0.6956     5.5259     0.5593 H       
  82 H82           -1.4133     2.2062    -1.2972 H       
  83 H83            0.0442     0.0970     1.8824 H       
@<TRIPOS>BOND
   1    1    2 1
   2    1    4 1
   3    1   35 1
   4    1   39 1
   5    2    3 1
   6    2   36 1
   7    2   40 1
   8    3   30 1
   9    3   41 1
  10    3   42 1
  11    4    5 1
  12    4    6 1
  13    4    7 1
  14    5   34 1
  15    5   43 1
  16    5   44 1
  17    6   45 1
  18    6   46 1
  19    6   47 1
  20    7    8 1
  21    7   30 1
  22    7   37 1
  23    8    9 1
  24    8   48 1
  25    8   49 1
  26    9   10 1
  27    9   50 1
  28    9   51 1
  29   10   11 1
  30   10   12 1
  31   10   29 1
  32   11   52 1
  33   11   53 1
  34   11   54 1
  35   12   13 1
  36   12   14 1
  37   12   26 1
  38   13   55 1
  39   13   56 1
  40   13   57 1
  41   14   15 1
  42   14   58 1
  43   14   59 1
  44   15   16 1
  45   15   60 1
  46   15   61 1
  47   16   17 1
  48   16   18 1
  49   16   24 1
  50   17   32 2
  51   17   33 1
  52   18   19 1
  53   18   62 1
  54   18   63 1
  55   19   20 1
  56   19   64 1
  57   19   65 1
  58   20   21 1
  59   20   22 1
  60   20   66 1
  61   21   67 1
  62   21   68 1
  63   21   69 1
  64   22   23 1
  65   22   24 1
  66   22   70 1
  67   23   71 1
  68   23   72 1
  69   23   73 1
  70   24   25 1
  71   24   26 1
  72   26   27 2
  73   27   28 1
  74   27   74 1
  75   28   29 1
  76   28   75 1
  77   28   76 1
  78   29   38 1
  79   29   30 1
  80   30   31 1
  81   31   77 1
  82   31   78 1
  83   31   79 1
  84   33   80 1
  85   34   81 1
  86   35   82 1
  87   36   83 1

#	End of record

