#	Name: ASD03331731
#	Creating user name:	WinNT
#	Creation time:	15. 06. 2019 20:39

#	Modifying user name:	WinNT
#	Modification time:	15. 06. 2019 20:39

#	Program:	/corina/corina34_cracker 3.40 0067  02.08.2006

@<TRIPOS>MOLECULE
ASD03331731
  48   51    0    0    0
SMALL
NO_CHARGES


@<TRIPOS>ATOM
   1 C1             0.7644     0.3784    -1.6185 C.ar    
   2 C2             0.3918    -0.4907    -0.6101 C.ar    
   3 C3             1.0805    -0.4946     0.5884 C.ar    
   4 C4             2.1420     0.3703     0.7785 C.ar    
   5 C5             2.5151     1.2387    -0.2302 C.ar    
   6 C6             1.8256     1.2436    -1.4283 C.ar    
   7 C7             3.6720     2.1819    -0.0228 C.3     
   8 C8             3.8511     3.0352    -1.2520 C.2     
   9 C9             2.9186     4.0423    -1.7555 C.ar    
  10 N10            4.7125     3.9388    -3.1021 N.pl3   
  11 C11            4.9104     3.0190    -2.0984 C.2     
  12 C12            1.6755     4.5121    -1.3220 C.ar    
  13 C13            1.0326     5.4976    -2.0375 C.ar    
  14 C14            1.6126     6.0244    -3.1846 C.ar    
  15 C15            2.8371     5.5715    -3.6249 C.ar    
  16 C16            3.5053     4.5777    -2.9181 C.ar    
  17 C17            6.0968     2.1464    -1.9631 C.ar    
  18 Cl18          -0.5114     6.0844    -1.5032 Cl      
  19 C19            6.7084     1.9830    -0.7195 C.ar    
  20 C20            6.6060     1.4784    -3.0775 C.ar    
  21 C21            7.7127     0.6654    -2.9445 C.ar    
  22 C22            8.3173     0.5114    -1.7096 C.ar    
  23 C23            7.8145     1.1671    -0.6000 C.ar    
  24 C24            3.3930     3.0655     1.1657 C.2     
  25 O25            2.3606     2.9419     1.7812 O.2     
  26 O26            4.2913     3.9897     1.5405 O.3     
  27 C27            3.9560     4.8051     2.6942 C.3     
  28 C28            5.0915     5.7935     2.9675 C.3     
  29 H29            0.2292     0.3783    -2.5566 H       
  30 H30           -0.4375    -1.1664    -0.7586 H       
  31 H31            0.7889    -1.1731     1.3765 H       
  32 H32            2.6795     0.3678     1.7152 H       
  33 H33            2.1168     1.9223    -2.2162 H       
  34 H34            4.5811     1.6079     0.1566 H       
  35 H35            5.3308     4.1131    -3.8288 H       
  36 H36            1.2215     4.1042    -0.4310 H       
  37 H37            1.0982     6.7967    -3.7372 H       
  38 H38            3.2778     5.9882    -4.5185 H       
  39 H39            6.3168     2.4943     0.1475 H       
  40 H40            6.1345     1.5972    -4.0419 H       
  41 H41            8.1078     0.1478    -3.8062 H       
  42 H42            9.1832    -0.1264    -1.6107 H       
  43 H43            8.2887     1.0398     0.3620 H       
  44 H44            3.0359     5.3547     2.4956 H       
  45 H45            3.8154     4.1636     3.5641 H       
  46 H46            6.0116     5.2439     3.1662 H       
  47 H47            5.2320     6.4350     2.0976 H       
  48 H48            4.8397     6.4056     3.8336 H       
@<TRIPOS>BOND
   1    1    2 ar
   2    1    6 ar
   3    1   29 1
   4    2    3 ar
   5    2   30 1
   6    3    4 ar
   7    3   31 1
   8    4    5 ar
   9    4   32 1
  10    5    6 ar
  11    5    7 1
  12    6   33 1
  13    7    8 1
  14    7   24 1
  15    7   34 1
  16    8    9 1
  17    8   11 2
  18    9   12 ar
  19    9   16 ar
  20   10   11 1
  21   10   16 1
  22   10   35 1
  23   11   17 1
  24   12   13 ar
  25   12   36 1
  26   13   14 ar
  27   13   18 1
  28   14   15 ar
  29   14   37 1
  30   15   16 ar
  31   15   38 1
  32   17   20 ar
  33   17   19 ar
  34   19   23 ar
  35   19   39 1
  36   20   21 ar
  37   20   40 1
  38   21   22 ar
  39   21   41 1
  40   22   23 ar
  41   22   42 1
  42   23   43 1
  43   24   25 2
  44   24   26 1
  45   26   27 1
  46   27   28 1
  47   27   44 1
  48   27   45 1
  49   28   46 1
  50   28   47 1
  51   28   48 1

#	End of record

