#	Name: ASD02560243
#	Creating user name:	WinNT
#	Creation time:	15. 06. 2019 20:24

#	Modifying user name:	WinNT
#	Modification time:	15. 06. 2019 20:24

#	Program:	/corina/corina34_cracker 3.40 0067  02.08.2006

@<TRIPOS>MOLECULE
ASD02560243
  34   36    0    0    0
SMALL
NO_CHARGES


@<TRIPOS>ATOM
   1 C1             0.0476     1.3016     0.4982 C.2     
   2 N2             0.0575    -0.0169     0.4259 N.2     
   3 C3             1.1812    -0.5781     0.1026 C.2     
   4 S4             2.3819     0.6128    -0.1483 S.3     
   5 C5             1.2170     1.8811     0.2231 C.2     
   6 C6             1.4934     3.3626     0.2284 C.3     
   7 N7             1.3799    -1.9451    -0.0211 N.pl3   
   8 C8             0.3007    -2.8185     0.0895 C.ar    
   9 C9            -0.9691    -2.4067    -0.3044 C.ar    
  10 C10           -2.0379    -3.2673    -0.1963 C.ar    
  11 C11           -1.8468    -4.5566     0.3098 C.ar    
  12 C12           -0.5699    -4.9670     0.7046 C.ar    
  13 C13            0.4955    -4.1032     0.5885 C.ar    
  14 C14            1.9444     3.7845     1.6030 C.ar    
  15 C15            3.2894     3.7671     1.9257 C.ar    
  16 C16            3.7028     4.1546     3.1880 C.ar    
  17 C17            2.7722     4.5591     4.1264 C.ar    
  18 C18            1.4280     4.5763     3.8047 C.ar    
  19 C19            1.0140     4.1949     2.5408 C.ar    
  20 Cl20          -0.6743     4.2166     2.1370 Cl      
  21 Cl21           4.4584     3.2585     0.7473 Cl      
  22 C22           -2.9565    -5.4544     0.4241 C.1     
  23 N23           -3.8368    -6.1667     0.5147 N.1     
  24 H24           -0.8371     1.8654     0.7547 H       
  25 H25            2.2758     3.5888    -0.4960 H       
  26 H26            0.5848     3.9026    -0.0376 H       
  27 H27            2.2705    -2.2929    -0.1848 H       
  28 H28           -1.1161    -1.4106    -0.6950 H       
  29 H29           -3.0230    -2.9470    -0.5019 H       
  30 H30           -0.4188    -5.9622     1.0960 H       
  31 H31            1.4821    -4.4196     0.8933 H       
  32 H32            4.7529     4.1407     3.4401 H       
  33 H33            3.0953     4.8615     5.1116 H       
  34 H34            0.7012     4.8918     4.5387 H       
@<TRIPOS>BOND
   1    1    2 1
   2    1    5 2
   3    1   24 1
   4    2    3 2
   5    3    4 1
   6    3    7 1
   7    4    5 1
   8    5    6 1
   9    6   14 1
  10    6   25 1
  11    6   26 1
  12    7    8 1
  13    7   27 1
  14    8    9 ar
  15    8   13 ar
  16    9   10 ar
  17    9   28 1
  18   10   11 ar
  19   10   29 1
  20   11   12 ar
  21   11   22 1
  22   12   13 ar
  23   12   30 1
  24   13   31 1
  25   14   15 ar
  26   14   19 ar
  27   15   16 ar
  28   15   21 1
  29   16   17 ar
  30   16   32 1
  31   17   18 ar
  32   17   33 1
  33   18   19 ar
  34   18   34 1
  35   19   20 1
  36   22   23 3

#	End of record

