#	Name: ASD01913589
#	Creating user name:	WinNT
#	Creation time:	15. 06. 2019 20:01

#	Modifying user name:	WinNT
#	Modification time:	15. 06. 2019 20:01

#	Program:	/corina/corina34_cracker 3.40 0067  02.08.2006

@<TRIPOS>MOLECULE
ASD01913589
  33   35    0    0    0
SMALL
NO_CHARGES


@<TRIPOS>ATOM
   1 C1            -2.8084     0.2909    -1.2465 C.ar    
   2 C2            -2.3017    -0.1540    -0.0297 C.ar    
   3 C3            -3.0948    -0.0155     1.1048 C.ar    
   4 N4            -4.2939     0.5306     0.9870 N.ar    
   5 C5            -4.7386     0.9401    -0.1841 C.ar    
   6 N6            -4.0176     0.8262    -1.2813 N.ar    
   7 C7            -0.9772    -2.0621     0.1329 C.ar    
   8 C8             0.2610    -2.6938     0.2074 C.ar    
   9 C9             0.3126    -4.0734     0.2981 C.ar    
  10 N10           -0.7892    -4.7927     0.3148 N.ar    
  11 C11           -1.9917    -4.2324     0.2459 C.ar    
  12 C12           -2.1250    -2.8511     0.1529 C.ar    
  13 C13           -3.2017    -5.0866     0.2684 C.2     
  14 N14           -3.0796    -6.4258     0.3585 N.am    
  15 O15           -1.0641    -0.7102     0.0486 O.3     
  16 O16           -4.3044    -4.5799     0.2058 O.2     
  17 C17           -4.2159    -7.2219     0.4857 C.ar    
  18 C18           -4.0786    -8.5882     0.6949 C.ar    
  19 C19           -5.2182    -9.3686     0.8198 C.ar    
  20 C20           -6.4595    -8.7476     0.7300 C.ar    
  21 C21           -6.5188    -7.3847     0.5210 C.ar    
  22 N22           -5.4165    -6.6678     0.4116 N.ar    
  23 F23           -5.1248   -10.7009     1.0234 F       
  24 H24           -2.2212     0.2048    -2.1489 H       
  25 H25           -2.7369    -0.3492     2.0675 H       
  26 H26           -5.7222     1.3817    -0.2463 H       
  27 H27            1.1716    -2.1133     0.1941 H       
  28 H28            1.2713    -4.5673     0.3557 H       
  29 H29           -3.1033    -2.3971     0.0973 H       
  30 H30           -2.2007    -6.8354     0.3346 H       
  31 H31           -3.0982    -9.0366     0.7590 H       
  32 H32           -7.3670    -9.3257     0.8224 H       
  33 H33           -7.4803    -6.8978     0.4506 H       
@<TRIPOS>BOND
   1    1    2 ar
   2    1    6 ar
   3    1   24 1
   4    2    3 ar
   5    2   15 1
   6    3    4 ar
   7    3   25 1
   8    4    5 ar
   9    5    6 ar
  10    5   26 1
  11    7    8 ar
  12    7   12 ar
  13    7   15 1
  14    8    9 ar
  15    8   27 1
  16    9   10 ar
  17    9   28 1
  18   10   11 ar
  19   11   12 ar
  20   11   13 1
  21   12   29 1
  22   13   14 am
  23   13   16 2
  24   14   17 1
  25   14   30 1
  26   17   18 ar
  27   17   22 ar
  28   18   19 ar
  29   18   31 1
  30   19   20 ar
  31   19   23 1
  32   20   21 ar
  33   20   32 1
  34   21   22 ar
  35   21   33 1

#	End of record

