#	Name: ASD01901175
#	Creating user name:	WinNT
#	Creation time:	15. 06. 2019 19:53

#	Modifying user name:	WinNT
#	Modification time:	15. 06. 2019 19:53

#	Program:	/corina/corina34_cracker 3.40 0067  02.08.2006

@<TRIPOS>MOLECULE
ASD01901175
  51   54    0    0    0
SMALL
NO_CHARGES


@<TRIPOS>ATOM
   1 C1            -0.0158     1.3123     0.0090 C.ar    
   2 N2             0.0020    -0.0041     0.0017 N.ar    
   3 C3             1.1316    -0.6859    -0.0128 C.ar    
   4 C4             2.3556    -0.0416    -0.0210 C.ar    
   5 C5             2.3935     1.3414    -0.0139 C.ar    
   6 C6             1.1781     2.0387     0.0015 C.ar    
   7 C7             1.1598     3.4705     0.0090 C.1     
   8 C8             1.1447     4.6444     0.0151 C.1     
   9 C9             1.1263     6.0763     0.0226 C.ar    
  10 C10            2.3268     6.7924     0.0150 C.ar    
  11 C11            2.3053     8.1721     0.0223 C.ar    
  12 C12            1.0908     8.8505     0.0376 C.ar    
  13 C13           -0.1060     8.1411     0.0452 C.ar    
  14 C14           -0.0921     6.7613     0.0317 C.ar    
  15 N15            1.0728    10.2528     0.0459 N.am    
  16 C16            1.0533    10.9212    -1.1193 C.2     
  17 N17            0.7972    12.2385    -1.1703 N.am    
  18 C18            0.4069    12.9763     0.0326 C.3     
  19 C19            1.1563    12.4144     1.2429 C.3     
  20 C20            1.0697    10.9086     1.2209 C.2     
  21 O21            1.2732    10.3193    -2.1520 O.2     
  22 O22            1.0012    10.2893     2.2610 O.2     
  23 C23            0.9105    12.9473    -2.4474 C.3     
  24 C24            0.7591    14.4547    -0.1438 C.3     
  25 C25           -1.0775    12.8367     0.2520 C.ar    
  26 F26            3.4651     8.8650     0.0149 F       
  27 C27           -1.6620    13.3723     1.3845 C.ar    
  28 C28           -1.8551    12.1781    -0.6822 C.ar    
  29 C29           -3.2167    12.0502    -0.4818 C.ar    
  30 C30           -3.8013    12.5814     0.6541 C.ar    
  31 C31           -3.0234    13.2450     1.5861 C.ar    
  32 F32           -1.2831     8.8039     0.0606 F       
  33 Cl33          -5.5114    12.4212     0.9065 Cl      
  34 H34           -0.9608     1.8351     0.0163 H       
  35 H35            1.1000    -1.7654    -0.0179 H       
  36 H36            3.2724    -0.6123    -0.0326 H       
  37 H37            3.3354     1.8699    -0.0198 H       
  38 H38            3.2700     6.2664     0.0038 H       
  39 H39           -1.0216     6.2112     0.0331 H       
  40 H40            2.2007    12.7234     1.2001 H       
  41 H41            0.7016    12.7903     2.1594 H       
  42 H42            1.2089    12.2462    -3.2268 H       
  43 H43           -0.0524    13.3885    -2.7047 H       
  44 H44            1.6593    13.7346    -2.3608 H       
  45 H45            1.8328    14.5560    -0.3021 H       
  46 H46            0.2255    14.8551    -1.0058 H       
  47 H47            0.4701    15.0063     0.7508 H       
  48 H48           -1.0545    13.8900     2.1121 H       
  49 H49           -1.3987    11.7638    -1.5690 H       
  50 H50           -3.8241    11.5360    -1.2118 H       
  51 H51           -3.4798    13.6632     2.4711 H       
@<TRIPOS>BOND
   1    1    2 ar
   2    1    6 ar
   3    1   34 1
   4    2    3 ar
   5    3    4 ar
   6    3   35 1
   7    4    5 ar
   8    4   36 1
   9    5    6 ar
  10    5   37 1
  11    6    7 1
  12    7    8 3
  13    8    9 1
  14    9   10 ar
  15    9   14 ar
  16   10   11 ar
  17   10   38 1
  18   11   12 ar
  19   11   26 1
  20   12   13 ar
  21   12   15 1
  22   13   14 ar
  23   13   32 1
  24   14   39 1
  25   15   16 am
  26   15   20 am
  27   16   17 am
  28   16   21 2
  29   17   23 1
  30   17   18 1
  31   18   19 1
  32   18   24 1
  33   18   25 1
  34   19   20 1
  35   19   40 1
  36   19   41 1
  37   20   22 2
  38   23   42 1
  39   23   43 1
  40   23   44 1
  41   24   45 1
  42   24   46 1
  43   24   47 1
  44   25   28 ar
  45   25   27 ar
  46   27   31 ar
  47   27   48 1
  48   28   29 ar
  49   28   49 1
  50   29   30 ar
  51   29   50 1
  52   30   31 ar
  53   30   33 1
  54   31   51 1

#	End of record

