#	Name: ASD00770001
#	Creating user name:	WinNT
#	Creation time:	15. 06. 2019 18:37

#	Modifying user name:	WinNT
#	Modification time:	15. 06. 2019 18:37

#	Program:	/corina/corina34_cracker 3.40 0067  02.08.2006

@<TRIPOS>MOLECULE
ASD00770001
  51   53    0    0    0
SMALL
NO_CHARGES


@<TRIPOS>ATOM
   1 C1            -0.0184     1.5028     0.0103 C.2     
   2 N2             1.3055    -0.4734    -0.4867 N.3     
   3 C3             0.0021    -0.0041     0.0020 C.3     
   4 C4            -0.2279    -0.5251     1.4221 C.3     
   5 C5            -0.3315    -2.0513     1.3948 C.3     
   6 S6            -0.6036    -2.6676     3.0748 Du      
   7 C7            -0.6374    -4.3648     2.4467 C.3     
   8 O8             1.0197     2.1211     0.0037 O.2     
   9 O9            -1.1898     2.1580     0.0194 O.3     
  10 C10           -0.8756    -3.2839     4.7547 C.3     
  11 C11           -0.9253    -2.1050     5.7287 C.3     
  12 C12           -1.0315    -2.6135     7.1835 C.3     
  13 O13            0.2527    -2.6091     7.8104 O.3     
  14 C14           -1.9719    -1.5970     7.8688 C.3     
  15 O15           -1.2973    -0.9338     8.9399 O.3     
  16 C16           -2.3228    -0.5947     6.7469 C.3     
  17 O17           -2.1264    -1.3307     5.5199 O.3     
  18 N18           -3.7180    -0.1641     6.8657 N.pl3   
  19 C19           -4.7863    -0.7007     6.2106 C.2     
  20 N20           -5.8761    -0.0763     6.5515 N.2     
  21 C21           -5.5772     0.8978     7.4442 C.ar    
  22 C22           -6.3244     1.8630     8.1410 C.ar    
  23 N23           -7.6949     1.9545     7.9728 N.pl3   
  24 N24           -5.6842     2.6854     8.9653 N.ar    
  25 C25           -4.3765     2.6051     9.1324 C.ar    
  26 N26           -3.6368     1.7182     8.5012 N.ar    
  27 C27           -4.1900     0.8493     7.6610 C.ar    
  28 H28            2.0536    -0.1430     0.1043 H       
  29 H29            1.3222    -1.4794    -0.5627 H       
  30 H30           -0.7864    -0.3745    -0.6531 H       
  31 H31            0.6068    -0.2288     2.0574 H       
  32 H32           -1.1526    -0.1051     1.8179 H       
  33 H33           -1.1662    -2.3475     0.7595 H       
  34 H34            0.5932    -2.4712     0.9991 H       
  35 H35            0.6166    -2.0915     3.4838 H       
  36 H36           -1.6600    -4.6340     2.1823 H       
  37 H37           -0.0025    -4.4382     1.5637 H       
  38 H38           -0.2701    -5.0443     3.2158 H       
  39 H39           -1.1523     3.1243     0.0245 H       
  40 H40           -1.8196    -3.8276     4.7939 H       
  41 H41           -0.0601    -3.9513     5.0334 H       
  42 H42           -0.0419    -1.4778     5.6095 H       
  43 H43           -1.4639    -3.6137     7.2079 H       
  44 H44            0.2443    -2.9193     8.7263 H       
  45 H45           -2.8704    -2.0942     8.2343 H       
  46 H46           -1.0008    -1.5260     9.6445 H       
  47 H47           -1.6547     0.2658     6.7843 H       
  48 H48           -4.7357    -1.5225     5.5117 H       
  49 H49           -8.1509     1.3481     7.3684 H       
  50 H50           -8.1996     2.6249     8.4593 H       
  51 H51           -3.8961     3.2933     9.8122 H       
@<TRIPOS>BOND
   1    1    3 1
   2    1    8 2
   3    1    9 1
   4    2    3 1
   5    2   28 1
   6    2   29 1
   7    3    4 1
   8    3   30 1
   9    4    5 1
  10    4   31 1
  11    4   32 1
  12    5    6 1
  13    5   33 1
  14    5   34 1
  15    6    7 1
  16    6   10 1
  17    6   35 1
  18    7   36 1
  19    7   37 1
  20    7   38 1
  21    9   39 1
  22   10   11 1
  23   10   40 1
  24   10   41 1
  25   11   12 1
  26   11   17 1
  27   11   42 1
  28   12   13 1
  29   12   14 1
  30   12   43 1
  31   13   44 1
  32   14   15 1
  33   14   16 1
  34   14   45 1
  35   15   46 1
  36   16   17 1
  37   16   18 1
  38   16   47 1
  39   18   19 1
  40   18   27 1
  41   19   20 2
  42   19   48 1
  43   20   21 1
  44   21   22 ar
  45   21   27 ar
  46   22   23 1
  47   22   24 ar
  48   23   49 1
  49   23   50 1
  50   24   25 ar
  51   25   26 ar
  52   25   51 1
  53   26   27 ar

#	End of record

