#	Name: ASD06350017
#	Creating user name:	WinNT
#	Creation time:	15. 06. 2019 21:06

#	Modifying user name:	WinNT
#	Modification time:	15. 06. 2019 21:06

#	Program:	/corina/corina34_cracker 3.40 0067  02.08.2006

@<TRIPOS>MOLECULE
ASD06350017
  58   63    0    0    0
SMALL
NO_CHARGES


@<TRIPOS>ATOM
   1 F1             0.7107    -0.1751    -1.3642 F       
   2 C2             0.6743     1.1218    -0.9873 C.ar    
   3 C3             1.7866     1.9237    -1.1612 C.ar    
   4 C4             1.7481     3.2568    -0.7733 C.ar    
   5 C5             0.5926     3.7828    -0.2113 C.ar    
   6 C6            -0.5186     2.9806    -0.0373 C.ar    
   7 C7            -0.4832     1.6514    -0.4299 C.ar    
   8 O8            -1.5778     0.8624    -0.2582 O.3     
   9 C9            -1.6401     0.0947     0.8570 C.ar    
  10 N10           -0.6624     0.1332     1.7579 N.ar    
  11 C11           -0.7150    -0.6094     2.8451 C.ar    
  12 N12           -1.7275    -1.4164     3.0883 N.ar    
  13 C13           -2.7445    -1.5115     2.2355 C.ar    
  14 C14           -2.7295    -0.7400     1.0783 C.ar    
  15 O15           -3.7813    -2.3434     2.4930 O.3     
  16 N16           -3.6581    -3.0578     3.7094 N.pl3   
  17 N17           -2.6775    -2.9711     4.5403 N.2     
  18 N18           -2.8446    -3.7416     5.5574 N.2     
  19 C19           -4.0102    -4.4026     5.4252 C.ar    
  20 C20           -4.5636    -3.9557     4.2085 C.ar    
  21 C21           -5.7873    -4.4598     3.7824 C.ar    
  22 C22           -6.4429    -5.3838     4.5465 C.ar    
  23 C23           -5.9003    -5.8268     5.7468 C.ar    
  24 C24           -4.7027    -5.3453     6.1906 C.ar    
  25 N25            2.8743     4.0699    -0.9486 N.am    
  26 C26            2.7234     5.3877    -1.1879 C.2     
  27 O27            1.6170     5.8915    -1.1422 O.2     
  28 C28            3.8962     6.2165    -1.5042 C.2     
  29 C29            3.8430     7.6025    -1.3663 C.2     
  30 C30            4.9751     8.3561    -1.6751 C.2     
  31 C31            6.1072     7.7411    -2.1032 C.2     
  32 N32            6.1660     6.3933    -2.2396 N.am    
  33 C33            5.1033     5.6190    -1.9493 C.2     
  34 O34            5.1751     4.4090    -2.0781 O.2     
  35 C35            7.3526     5.7966    -2.6842 C.ar    
  36 C36            7.7878     6.0012    -3.9867 C.ar    
  37 C37            8.9586     5.4128    -4.4243 C.ar    
  38 C38            9.6986     4.6186    -3.5657 C.ar    
  39 C39            9.2665     4.4122    -2.2636 C.ar    
  40 C40            8.0982     5.0044    -1.8209 C.ar    
  41 F41            9.9897     3.6364    -1.4268 F       
  42 F42           10.8428     4.0434    -3.9961 F       
  43 H43            2.6852     1.5139    -1.5982 H       
  44 H44            0.5626     4.8194     0.0904 H       
  45 H45           -1.4168     3.3903     0.4006 H       
  46 H46            0.0953    -0.5553     3.5570 H       
  47 H47           -3.5397    -0.7938     0.3662 H       
  48 H48           -6.2182    -4.1222     2.8514 H       
  49 H49           -7.3935    -5.7740     4.2140 H       
  50 H50           -6.4337    -6.5576     6.3366 H       
  51 H51           -4.2889    -5.6959     7.1246 H       
  52 H52            3.7631     3.6849    -0.8978 H       
  53 H53            2.9389     8.0854    -1.0258 H       
  54 H54            4.9511     9.4311    -1.5739 H       
  55 H55            6.9768     8.3363    -2.3398 H       
  56 H56            7.2108     6.6201    -4.6579 H       
  57 H57            9.2966     5.5723    -5.4376 H       
  58 H58            7.7612     4.8441    -0.8074 H       
@<TRIPOS>BOND
   1    1    2 1
   2    2    3 ar
   3    2    7 ar
   4    3    4 ar
   5    3   43 1
   6    4    5 ar
   7    4   25 1
   8    5    6 ar
   9    5   44 1
  10    6    7 ar
  11    6   45 1
  12    7    8 1
  13    8    9 1
  14    9   10 ar
  15    9   14 ar
  16   10   11 ar
  17   11   12 ar
  18   11   46 1
  19   12   13 ar
  20   13   14 ar
  21   13   15 1
  22   14   47 1
  23   15   16 1
  24   16   17 1
  25   16   20 1
  26   17   18 2
  27   18   19 1
  28   19   20 ar
  29   19   24 ar
  30   20   21 ar
  31   21   22 ar
  32   21   48 1
  33   22   23 ar
  34   22   49 1
  35   23   24 ar
  36   23   50 1
  37   24   51 1
  38   25   26 am
  39   25   52 1
  40   26   27 2
  41   26   28 1
  42   28   29 2
  43   28   33 1
  44   29   30 1
  45   29   53 1
  46   30   31 2
  47   30   54 1
  48   31   32 1
  49   31   55 1
  50   32   33 am
  51   32   35 1
  52   33   34 2
  53   35   36 ar
  54   35   40 ar
  55   36   37 ar
  56   36   56 1
  57   37   38 ar
  58   37   57 1
  59   38   39 ar
  60   38   42 1
  61   39   40 ar
  62   39   41 1
  63   40   58 1

#	End of record

