#	Name: ASD01881763
#	Creating user name:	WinNT
#	Creation time:	15. 06. 2019 19:43

#	Modifying user name:	WinNT
#	Modification time:	15. 06. 2019 19:43

#	Program:	/corina/corina34_cracker 3.40 0067  02.08.2006

@<TRIPOS>MOLECULE
ASD01881763
  58   62    0    0    0
SMALL
NO_CHARGES


@<TRIPOS>ATOM
   1 C1             2.6938     0.2308     2.5090 C.ar    
   2 C2             2.3522    -1.0718     2.1971 C.ar    
   3 C3             4.0168     0.5619     2.7478 C.ar    
   4 C4             4.9977    -0.4122     2.6740 C.ar    
   5 C5             4.6545    -1.7161     2.3615 C.ar    
   6 C6             3.3304    -2.0450     2.1236 C.ar    
   7 F7             4.3504     1.8351     3.0523 F       
   8 F8             5.6108    -2.6676     2.2887 F       
   9 C9             2.9564    -3.4648     1.7838 C.3     
  10 C10            1.9808    -4.0004     2.8336 C.3     
  11 C11            1.6010    -5.4418     2.4887 C.3     
  12 C12            0.9378    -5.4785     1.1104 C.3     
  13 C13            1.9134    -4.9430     0.0605 C.3     
  14 C14            2.2932    -3.5016     0.4055 C.3     
  15 N15            0.5732    -6.8625     0.7792 N.3     
  16 C16           -0.5382    -6.8988    -0.1807 C.3     
  17 C17           -0.8834    -8.3315    -0.4957 C.2     
  18 C18           -0.1775    -9.0240    -1.4944 C.2     
  19 C19           -0.4825   -10.3071    -1.7804 C.2     
  20 N20           -1.4787   -10.9489    -1.1054 N.pl3   
  21 C21           -2.1861   -10.2984    -0.1243 C.2     
  22 C22           -1.8756    -8.9611     0.1893 C.2     
  23 C23           -2.6373    -8.2345     1.2676 C.3     
  24 C24           -1.9995   -12.2043    -1.1697 C.2     
  25 N25           -2.9540   -12.2804    -0.2786 N.2     
  26 N26           -3.0730   -11.1609     0.3446 N.2     
  27 F27           -3.5799    -7.3837     0.6802 F       
  28 F28           -3.2921    -9.1637     2.0831 F       
  29 F29           -1.7472    -7.4813     2.0406 F       
  30 C30           -1.5577   -13.3058    -2.0984 C.3     
  31 C31           -0.4529   -14.1253    -1.4285 C.3     
  32 C32            0.0509   -15.3677    -2.1657 C.3     
  33 C33            0.9291   -14.1175    -2.0847 C.3     
  34 H34            1.9289     0.9914     2.5622 H       
  35 H35            1.3199    -1.3292     2.0110 H       
  36 H36            6.0300    -0.1548     2.8597 H       
  37 H37            3.8534    -4.0840     1.7720 H       
  38 H38            2.4532    -3.9742     3.8156 H       
  39 H39            1.0838    -3.3812     2.8454 H       
  40 H40            2.4980    -6.0609     2.4769 H       
  41 H41            0.9060    -5.8233     3.2366 H       
  42 H42            0.0408    -4.8594     1.1222 H       
  43 H43            2.8104    -5.5621     0.0488 H       
  44 H44            1.4410    -4.9692    -0.9214 H       
  45 H45            1.3962    -2.8824     0.4173 H       
  46 H46            2.9883    -3.1200    -0.3425 H       
  47 H47            1.3703    -7.3725     0.4289 H       
  48 H48           -1.4073    -6.4021     0.2508 H       
  49 H49           -0.2442    -6.3861    -1.0965 H       
  50 H50            0.6133    -8.5264    -2.0361 H       
  51 H51            0.0662   -10.8295    -2.5501 H       
  52 H52           -2.4052   -13.9535    -2.3230 H       
  53 H53           -1.1778   -12.8710    -3.0229 H       
  54 H54           -0.4934   -14.1677    -0.3401 H       
  55 H55            0.3423   -16.2274    -1.5622 H       
  56 H56           -0.4047   -15.6013    -3.1279 H       
  57 H57            1.0513   -13.5286    -2.9938 H       
  58 H58            1.7983   -14.1547    -1.4281 H       
@<TRIPOS>BOND
   1    1    2 ar
   2    1    3 ar
   3    1   34 1
   4    2    6 ar
   5    2   35 1
   6    3    4 ar
   7    3    7 1
   8    4    5 ar
   9    4   36 1
  10    5    6 ar
  11    5    8 1
  12    6    9 1
  13    9   10 1
  14    9   14 1
  15    9   37 1
  16   10   11 1
  17   10   38 1
  18   10   39 1
  19   11   12 1
  20   11   40 1
  21   11   41 1
  22   12   13 1
  23   12   15 1
  24   12   42 1
  25   13   14 1
  26   13   43 1
  27   13   44 1
  28   14   45 1
  29   14   46 1
  30   15   16 1
  31   15   47 1
  32   16   17 1
  33   16   48 1
  34   16   49 1
  35   17   18 1
  36   17   22 2
  37   18   19 2
  38   18   50 1
  39   19   20 1
  40   19   51 1
  41   20   24 1
  42   20   21 1
  43   21   22 1
  44   21   26 2
  45   22   23 1
  46   23   27 1
  47   23   28 1
  48   23   29 1
  49   24   25 2
  50   24   30 1
  51   25   26 1
  52   30   31 1
  53   30   52 1
  54   30   53 1
  55   31   32 1
  56   31   33 1
  57   31   54 1
  58   32   33 1
  59   32   55 1
  60   32   56 1
  61   33   57 1
  62   33   58 1

#	End of record

