#	Name: ASD04882002
#	Creating user name:	WinNT
#	Creation time:	15. 06. 2019 20:53

#	Modifying user name:	WinNT
#	Modification time:	15. 06. 2019 20:53

#	Program:	/corina/corina34_cracker 3.40 0067  02.08.2006

@<TRIPOS>MOLECULE
ASD04882002
  80   84    0    0    0
SMALL
NO_CHARGES


@<TRIPOS>ATOM
   1 C1            -0.3471     1.9736    -1.3029 C.ar    
   2 C2            -0.4141     0.6027    -1.4674 C.ar    
   3 C3             0.7442    -0.1517    -1.4602 C.ar    
   4 C4             1.9695     0.4648    -1.2890 C.ar    
   5 C5             2.0366     1.8358    -1.1254 C.ar    
   6 C6             0.8782     2.5901    -1.1312 C.ar    
   7 C7             3.3724     2.5079    -0.9383 C.3     
   8 O8             3.9041     2.8741    -2.2131 O.3     
   9 C9             5.1128     3.4953    -2.2222 C.ar    
  10 C10            5.6881     3.8786    -3.4250 C.ar    
  11 C11            6.9168     4.5098    -3.4315 C.ar    
  12 C12            7.5733     4.7596    -2.2405 C.ar    
  13 C13            7.0023     4.3782    -1.0404 C.ar    
  14 C14            5.7709     3.7522    -1.0282 C.ar    
  15 C15            8.9137     5.4484    -2.2505 C.3     
  16 S16           10.2754     4.2174    -2.3230 S.3     
  17 C17           11.3487     5.1366    -1.1478 C.3     
  18 C18           10.3480     6.0029    -0.4094 C.2     
  19 N19            9.1537     6.1363    -0.9736 N.am    
  20 O20           10.6236     6.5452     0.6399 O.2     
  21 C21           12.0514     4.1759    -0.1865 C.3     
  22 C22           13.0242     3.3188    -0.9546 C.2     
  23 N23           13.7614     2.3929    -0.3098 N.am    
  24 O24           13.1438     3.4622    -2.1529 O.2     
  25 C25           14.7072     1.5597    -1.0565 C.3     
  26 C26           15.4099     0.5990    -0.0951 C.3     
  27 C27           16.3827    -0.2580    -0.8632 C.ar    
  28 C28           17.6885     0.1626    -1.0315 C.ar    
  29 C29           18.5850    -0.6203    -1.7355 C.ar    
  30 C30           18.1751    -1.8290    -2.2738 C.ar    
  31 C31           16.8600    -2.2526    -2.1043 C.ar    
  32 C32           15.9685    -1.4663    -1.3932 C.ar    
  33 O33           16.4528    -3.4385    -2.6309 O.3     
  34 C34           15.0893    -3.8091    -2.4175 C.3     
  35 O35           19.0554    -2.5999    -2.9668 O.3     
  36 C36           20.3880    -2.1018    -3.1013 C.3     
  37 C37            8.1535     6.9089    -0.3713 C.ar    
  38 C38            7.7526     6.6332     0.9259 C.ar    
  39 C39            6.7554     7.4057     1.5225 C.ar    
  40 C40            6.1680     8.4522     0.8072 C.ar    
  41 C41            6.5757     8.7182    -0.4860 C.ar    
  42 C42            7.5672     7.9559    -1.0731 C.ar    
  43 C43            6.3218     7.1177     2.9056 C.2     
  44 N44            6.8898     6.1072     3.5932 N.am    
  45 O45            5.4529     7.7921     3.4231 O.2     
  46 Cl46           4.9264     9.4173     1.5424 Cl      
  47 H47           -1.2517     2.5635    -1.3129 H       
  48 H48           -1.3715     0.1210    -1.6011 H       
  49 H49            0.6917    -1.2228    -1.5880 H       
  50 H50            2.8744    -0.1247    -1.2827 H       
  51 H51            0.9306     3.6612    -1.0037 H       
  52 H52            3.2471     3.4013    -0.3266 H       
  53 H53            4.0583     1.8212    -0.4422 H       
  54 H54            5.1758     3.6833    -4.3555 H       
  55 H55            7.3653     4.8081    -4.3676 H       
  56 H56            7.5174     4.5738    -0.1116 H       
  57 H57            5.3253     3.4544    -0.0906 H       
  58 H58            8.9804     6.1461    -3.0853 H       
  59 H59           12.0731     5.7506    -1.6829 H       
  60 H60           12.5893     4.7476     0.5698 H       
  61 H61           11.3104     3.5398     0.2977 H       
  62 H62           13.6658     2.2782     0.6486 H       
  63 H63           14.1693     0.9881    -1.8128 H       
  64 H64           15.4482     2.1958    -1.5406 H       
  65 H65           15.9478     1.1707     0.6612 H       
  66 H66           14.6689    -0.0371     0.3891 H       
  67 H67           18.0092     1.1049    -0.6125 H       
  68 H68           19.6047    -0.2892    -1.8659 H       
  69 H69           14.9476    -1.7926    -1.2602 H       
  70 H70           14.8959    -3.8820    -1.3473 H       
  71 H71           14.4351    -3.0546    -2.8543 H       
  72 H72           14.8969    -4.7733    -2.8880 H       
  73 H73           20.9851    -2.8114    -3.6739 H       
  74 H74           20.3669    -1.1432    -3.6196 H       
  75 H75           20.8284    -1.9708    -2.1128 H       
  76 H76            8.2103     5.8226     1.4736 H       
  77 H77            6.1207     9.5272    -1.0382 H       
  78 H78            7.8817     8.1686    -2.0842 H       
  79 H79            7.5832     5.5691     3.1803 H       
  80 H80            6.6053     5.9182     4.5011 H       
@<TRIPOS>BOND
   1    1    2 ar
   2    1    6 ar
   3    1   47 1
   4    2    3 ar
   5    2   48 1
   6    3    4 ar
   7    3   49 1
   8    4    5 ar
   9    4   50 1
  10    5    6 ar
  11    5    7 1
  12    6   51 1
  13    7    8 1
  14    7   52 1
  15    7   53 1
  16    8    9 1
  17    9   10 ar
  18    9   14 ar
  19   10   11 ar
  20   10   54 1
  21   11   12 ar
  22   11   55 1
  23   12   13 ar
  24   12   15 1
  25   13   14 ar
  26   13   56 1
  27   14   57 1
  28   15   16 1
  29   15   19 1
  30   15   58 1
  31   16   17 1
  32   17   18 1
  33   17   21 1
  34   17   59 1
  35   18   19 am
  36   18   20 2
  37   19   37 1
  38   21   22 1
  39   21   60 1
  40   21   61 1
  41   22   23 am
  42   22   24 2
  43   23   25 1
  44   23   62 1
  45   25   26 1
  46   25   63 1
  47   25   64 1
  48   26   27 1
  49   26   65 1
  50   26   66 1
  51   27   28 ar
  52   27   32 ar
  53   28   29 ar
  54   28   67 1
  55   29   30 ar
  56   29   68 1
  57   30   31 ar
  58   30   35 1
  59   31   32 ar
  60   31   33 1
  61   32   69 1
  62   33   34 1
  63   34   70 1
  64   34   71 1
  65   34   72 1
  66   35   36 1
  67   36   73 1
  68   36   74 1
  69   36   75 1
  70   37   38 ar
  71   37   42 ar
  72   38   39 ar
  73   38   76 1
  74   39   40 ar
  75   39   43 1
  76   40   41 ar
  77   40   46 1
  78   41   42 ar
  79   41   77 1
  80   42   78 1
  81   43   44 am
  82   43   45 2
  83   44   79 1
  84   44   80 1

#	End of record

