#	Name: ASD01870472
#	Creating user name:	WinNT
#	Creation time:	15. 06. 2019 19:39

#	Modifying user name:	WinNT
#	Modification time:	15. 06. 2019 19:39

#	Program:	/corina/corina34_cracker 3.40 0067  02.08.2006

@<TRIPOS>MOLECULE
ASD01870472
  40   43    0    0    0
SMALL
NO_CHARGES


@<TRIPOS>ATOM
   1 C1            -0.0303     1.3965    -0.2326 C.ar    
   2 C2            -0.0273     0.0161    -0.1053 C.ar    
   3 C3             1.1517    -0.6625     0.1396 C.ar    
   4 C4             2.3476     0.0279     0.2615 C.ar    
   5 C5             2.3599     1.4078     0.1366 C.ar    
   6 C6             1.1575     2.0998    -0.1132 C.ar    
   7 C7             3.4145     2.4413     0.2050 C.2     
   8 N8             2.8483     3.6453     0.0067 N.am    
   9 C9             1.5222     3.5303    -0.1881 C.2     
  10 O10            0.7534     4.4482    -0.3916 O.2     
  11 O11            4.5946     2.2375     0.4072 O.2     
  12 C12            3.5488     4.8615     0.0040 C.ar    
  13 C13            4.0790     5.3544    -1.1805 C.ar    
  14 C14            4.7676     6.5508    -1.1837 C.ar    
  15 C15            4.9305     7.2620    -0.0017 C.ar    
  16 C16            4.4004     6.7695     1.1835 C.ar    
  17 C17            3.7066     5.5747     1.1857 C.ar    
  18 Cl18           3.0380     4.9617     2.6658 Cl      
  19 N19            5.6292     8.4749    -0.0052 N.am    
  20 C20            6.4011     8.8110     1.0472 C.2     
  21 C21            7.2123    10.0307     1.0012 C.2     
  22 O22            6.4245     8.1015     2.0360 O.2     
  23 C23            8.0316    10.4761     2.0002 C.2     
  24 C24            8.6768    11.6501     1.6913 C.2     
  25 C25            8.3972    12.1503     0.4821 C.2     
  26 S26            7.2933    11.1514    -0.3513 S.3     
  27 C27            8.2093     9.7530     3.3104 C.3     
  28 H28           -0.9538     1.9210    -0.4284 H       
  29 H29           -0.9528    -0.5329    -0.1979 H       
  30 H30            1.1411    -1.7380     0.2372 H       
  31 H31            3.2657    -0.5075     0.4532 H       
  32 H32            3.9529     4.8016    -2.0997 H       
  33 H33            5.1802     6.9338    -2.1054 H       
  34 H34            4.5270     7.3223     2.1027 H       
  35 H35            5.5579     9.0735    -0.7652 H       
  36 H36            9.3592    12.1335     2.3748 H       
  37 H37            8.8173    13.0627     0.0851 H       
  38 H38            9.0324     9.0435     3.2250 H       
  39 H39            8.4317    10.4746     4.0965 H       
  40 H40            7.2924     9.2177     3.5573 H       
@<TRIPOS>BOND
   1    1    2 ar
   2    1    6 ar
   3    1   28 1
   4    2    3 ar
   5    2   29 1
   6    3    4 ar
   7    3   30 1
   8    4    5 ar
   9    4   31 1
  10    5    7 1
  11    5    6 ar
  12    6    9 1
  13    7    8 am
  14    7   11 2
  15    8    9 am
  16    8   12 1
  17    9   10 2
  18   12   13 ar
  19   12   17 ar
  20   13   14 ar
  21   13   32 1
  22   14   15 ar
  23   14   33 1
  24   15   16 ar
  25   15   19 1
  26   16   17 ar
  27   16   34 1
  28   17   18 1
  29   19   20 am
  30   19   35 1
  31   20   21 1
  32   20   22 2
  33   21   23 2
  34   21   26 1
  35   23   24 1
  36   23   27 1
  37   24   25 2
  38   24   36 1
  39   25   26 1
  40   25   37 1
  41   27   38 1
  42   27   39 1
  43   27   40 1

#	End of record

