#	Name: ASD01200187
#	Creating user name:	WinNT
#	Creation time:	15. 06. 2019 19:08

#	Modifying user name:	WinNT
#	Modification time:	15. 06. 2019 19:08

#	Program:	/corina/corina34_cracker 3.40 0067  02.08.2006

@<TRIPOS>MOLECULE
ASD01200187
  56   58    0    0    0
SMALL
NO_CHARGES


@<TRIPOS>ATOM
   1 C1             0.9784     1.3646    -1.7316 C.2     
   2 C2             0.8674    -0.1349    -1.6314 C.3     
   3 O3             1.5843     1.9858    -0.8843 O.2     
   4 N4             0.4091     2.0149    -2.7657 N.am    
   5 C5             0.4214     3.4084    -2.8047 C.ar    
   6 C6            -0.0647     4.0704    -3.9266 C.ar    
   7 C7            -0.0466     5.4536    -3.9521 C.ar    
   8 C8             0.4590     6.1299    -2.8500 C.ar    
   9 C9             0.9254     5.4079    -1.7694 C.ar    
  10 N10            0.8906     4.0891    -1.7712 N.ar    
  11 S11            1.7367    -0.7077    -0.1458 S.3     
  12 N12            2.5862    -3.2565    -0.4064 N.am    
  13 C13            1.3706    -2.4842    -0.1183 C.3     
  14 C14            0.9331    -2.9048     1.2655 C.2     
  15 C15            1.8096    -3.8081     1.6928 C.2     
  16 C16            2.8334    -4.0310     0.6667 C.2     
  17 O17            3.7679    -4.8023     0.7698 O.2     
  18 C18            1.7587    -4.4998     3.0307 C.3     
  19 C19           -0.2689    -2.3961     2.0188 C.3     
  20 C20            3.3796    -3.1993    -1.6366 C.3     
  21 C21            4.4439    -2.1413    -1.4993 C.ar    
  22 C22            5.6852    -2.4717    -0.9886 C.ar    
  23 C23            6.6614    -1.5012    -0.8626 C.ar    
  24 C24            6.3965    -0.2003    -1.2477 C.ar    
  25 C25            5.1555     0.1300    -1.7594 C.ar    
  26 C26            4.1807    -0.8415    -1.8894 C.ar    
  27 C27            7.4605     0.8580    -1.1095 C.3     
  28 C28            7.7738     1.4491    -2.4854 C.3     
  29 C29            6.9601     1.9659    -0.1804 C.3     
  30 H30           -0.1834    -0.4181    -1.5694 H       
  31 H31            1.3155    -0.5922    -2.5136 H       
  32 H32           -0.0091     1.5133    -3.4830 H       
  33 H33           -0.4507     3.5124    -4.7669 H       
  34 H34           -0.4172     5.9950    -4.8100 H       
  35 H35            0.4876     7.2095    -2.8383 H       
  36 H36            1.3199     5.9297    -0.9101 H       
  37 H37            0.5945    -2.7190    -0.8467 H       
  38 H38            1.1739    -5.4155     2.9442 H       
  39 H39            2.7711    -4.7442     3.3521 H       
  40 H40            1.2942    -3.8399     3.7634 H       
  41 H41           -1.1084    -3.0737     1.8636 H       
  42 H42           -0.0359    -2.3439     3.0823 H       
  43 H43           -0.5318    -1.4027     1.6553 H       
  44 H44            3.8498    -4.1671    -1.8111 H       
  45 H45            2.7299    -2.9543    -2.4769 H       
  46 H46            5.8921    -3.4881    -0.6876 H       
  47 H47            7.6310    -1.7592    -0.4628 H       
  48 H48            4.9484     1.1464    -2.0600 H       
  49 H49            3.2124    -0.5842    -2.2925 H       
  50 H50            8.3633     0.4131    -0.6910 H       
  51 H51            6.8710     1.8940    -2.9039 H       
  52 H52            8.5433     2.2145    -2.3854 H       
  53 H53            8.1302     0.6598    -3.1473 H       
  54 H54            6.7369     1.5448     0.7999 H       
  55 H55            7.7297     2.7313    -0.0804 H       
  56 H56            6.0573     2.4108    -0.5988 H       
@<TRIPOS>BOND
   1    1    2 1
   2    1    3 2
   3    1    4 am
   4    2   11 1
   5    2   30 1
   6    2   31 1
   7    4    5 1
   8    4   32 1
   9    5    6 ar
  10    5   10 ar
  11    6    7 ar
  12    6   33 1
  13    7    8 ar
  14    7   34 1
  15    8    9 ar
  16    8   35 1
  17    9   10 ar
  18    9   36 1
  19   11   13 1
  20   12   13 1
  21   12   16 am
  22   12   20 1
  23   13   14 1
  24   13   37 1
  25   14   15 2
  26   14   19 1
  27   15   16 1
  28   15   18 1
  29   16   17 2
  30   18   38 1
  31   18   39 1
  32   18   40 1
  33   19   41 1
  34   19   42 1
  35   19   43 1
  36   20   21 1
  37   20   44 1
  38   20   45 1
  39   21   22 ar
  40   21   26 ar
  41   22   23 ar
  42   22   46 1
  43   23   24 ar
  44   23   47 1
  45   24   25 ar
  46   24   27 1
  47   25   26 ar
  48   25   48 1
  49   26   49 1
  50   27   28 1
  51   27   29 1
  52   27   50 1
  53   28   51 1
  54   28   52 1
  55   28   53 1
  56   29   54 1
  57   29   55 1
  58   29   56 1

#	End of record

