#	Name: ASD08840007
#	Creating user name:	WinNT
#	Creation time:	15. 06. 2019 21:20

#	Modifying user name:	WinNT
#	Modification time:	15. 06. 2019 21:20

#	Program:	/corina/corina34_cracker 3.40 0067  02.08.2006

@<TRIPOS>MOLECULE
ASD08840007
   1    0    0    0    0
SMALL
NO_CHARGES


@<TRIPOS>ATOM
   1 W1             0.0000     0.0000     0.0000 Du      
@<TRIPOS>BOND

#	End of record

