#	Name: ASD00069168
#	Creating user name:	WinNT
#	Creation time:	15. 06. 2019 18:29

#	Modifying user name:	WinNT
#	Modification time:	15. 06. 2019 18:29

#	Program:	/corina/corina34_cracker 3.40 0067  02.08.2006

@<TRIPOS>MOLECULE
ASD00069168
  70   74    0    0    0
SMALL
NO_CHARGES


@<TRIPOS>ATOM
   1 N1            -0.0430     1.4336    -0.0045 N.3     
   2 C2            -0.0432    -0.0348    -0.0128 C.3     
   3 C3             0.6597    -0.5535     1.2438 C.3     
   4 C4             2.0965    -0.0249     1.2739 C.3     
   5 C5             2.0699     1.5055     1.2329 C.3     
   6 C6             1.3261     1.9645    -0.0233 C.3     
   7 C7             2.7752    -0.4831     2.5390 C.2     
   8 O8             2.1704    -1.1654     3.3387 O.2     
   9 N9             4.0544    -0.1346     2.7816 N.am    
  10 C10            4.7142    -0.5800     4.0114 C.3     
  11 C11            4.3879     0.3927     5.1464 C.3     
  12 C12            6.2052    -0.6185     3.7959 C.ar    
  13 C13            6.9534    -1.6541     4.3238 C.ar    
  14 C14            8.3211    -1.6893     4.1262 C.ar    
  15 C15            8.9405    -0.6892     3.4002 C.ar    
  16 C16            8.1922     0.3459     2.8715 C.ar    
  17 C17            6.8239     0.3788     3.0655 C.ar    
  18 C18           -0.7931     1.9418    -1.0728 C.ar    
  19 C19           -0.4376     1.6378    -2.3806 C.ar    
  20 C20           -1.1807     2.1415    -3.4336 C.ar    
  21 C21           -2.2776     2.9474    -3.1877 C.ar    
  22 C22           -2.6378     3.2543    -1.8893 C.ar    
  23 C23           -1.9022     2.7493    -0.8265 C.ar    
  24 N24           -2.2700     3.0546     0.4898 N.am    
  25 C25           -2.8029     4.2584     0.7787 C.2     
  26 O26           -2.8697     5.1160    -0.0811 O.2     
  27 C27           -3.3047     4.5356     2.1369 C.2     
  28 N28           -3.2881     3.6953     3.1476 N.2     
  29 C29           -3.8241     4.2918     4.2198 C.2     
  30 C30           -4.1902     5.5590     3.8599 C.2     
  31 N31           -3.8601     5.7121     2.5581 N.pl3   
  32 C32           -3.7519     1.8470     7.0774 C.ar    
  33 C33           -3.5777     2.3731     5.8140 C.ar    
  34 C34           -3.9919     3.6842     5.5625 C.ar    
  35 C35           -4.5682     4.4075     6.6111 C.ar    
  36 C36           -4.7049     3.8045     7.8439 C.ar    
  37 N37           -4.3005     2.5637     8.0397 N.ar    
  38 C38           -3.3155     0.4326     7.3604 C.3     
  39 F39            0.6335     0.8513    -2.6244 F       
  40 H40           -1.0709    -0.3977    -0.0300 H       
  41 H41            0.4832    -0.3931    -0.8974 H       
  42 H42            0.1259    -0.2070     2.1287 H       
  43 H43            0.6731    -1.6433     1.2297 H       
  44 H44            2.6419    -0.4030     0.4093 H       
  45 H45            1.5582     1.8844     2.1176 H       
  46 H46            3.0908     1.8868     1.2110 H       
  47 H47            1.8460     1.5968    -0.9079 H       
  48 H48            1.2929     3.0537    -0.0482 H       
  49 H49            4.5381     0.4111     2.1420 H       
  50 H50            4.3592    -1.5767     4.2738 H       
  51 H51            4.7429     1.3893     4.8841 H       
  52 H52            3.3094     0.4205     5.3023 H       
  53 H53            4.8788     0.0613     6.0614 H       
  54 H54            6.4695    -2.4354     4.8910 H       
  55 H55            8.9057    -2.4980     4.5392 H       
  56 H56           10.0092    -0.7163     3.2464 H       
  57 H57            8.6762     1.1274     2.3047 H       
  58 H58            6.2388     1.1855     2.6494 H       
  59 H59           -0.9033     1.9050    -4.4502 H       
  60 H60           -2.8542     3.3383    -4.0130 H       
  61 H61           -3.4948     3.8842    -1.7016 H       
  62 H62           -2.1413     2.3997     1.1937 H       
  63 H63           -4.6521     6.2992     4.4965 H       
  64 H64           -3.9942     6.5088     2.0213 H       
  65 H65           -3.1275     1.7808     5.0311 H       
  66 H66           -4.9010     5.4235     6.4581 H       
  67 H67           -5.1485     4.3554     8.6601 H       
  68 H68           -2.2795     0.4329     7.6992 H       
  69 H69           -3.9511     0.0044     8.1355 H       
  70 H70           -3.4003    -0.1626     6.4512 H       
@<TRIPOS>BOND
   1    1    2 1
   2    1    6 1
   3    1   18 1
   4    2    3 1
   5    2   40 1
   6    2   41 1
   7    3    4 1
   8    3   42 1
   9    3   43 1
  10    4    5 1
  11    4    7 1
  12    4   44 1
  13    5    6 1
  14    5   45 1
  15    5   46 1
  16    6   47 1
  17    6   48 1
  18    7    8 2
  19    7    9 am
  20    9   10 1
  21    9   49 1
  22   10   11 1
  23   10   12 1
  24   10   50 1
  25   11   51 1
  26   11   52 1
  27   11   53 1
  28   12   13 ar
  29   12   17 ar
  30   13   14 ar
  31   13   54 1
  32   14   15 ar
  33   14   55 1
  34   15   16 ar
  35   15   56 1
  36   16   17 ar
  37   16   57 1
  38   17   58 1
  39   18   19 ar
  40   18   23 ar
  41   19   20 ar
  42   19   39 1
  43   20   21 ar
  44   20   59 1
  45   21   22 ar
  46   21   60 1
  47   22   23 ar
  48   22   61 1
  49   23   24 1
  50   24   25 am
  51   24   62 1
  52   25   26 2
  53   25   27 1
  54   27   28 2
  55   27   31 1
  56   28   29 1
  57   29   30 2
  58   29   34 1
  59   30   31 1
  60   30   63 1
  61   31   64 1
  62   32   33 ar
  63   32   37 ar
  64   32   38 1
  65   33   34 ar
  66   33   65 1
  67   34   35 ar
  68   35   36 ar
  69   35   66 1
  70   36   37 ar
  71   36   67 1
  72   38   68 1
  73   38   69 1
  74   38   70 1

#	End of record

