#	Name: ASD08150266
#	Creating user name:	WinNT
#	Creation time:	15. 06. 2019 21:15

#	Modifying user name:	WinNT
#	Modification time:	15. 06. 2019 21:15

#	Program:	/corina/corina34_cracker 3.40 0067  02.08.2006

@<TRIPOS>MOLECULE
ASD08150266
  20   20    0    0    0
SMALL
NO_CHARGES


@<TRIPOS>ATOM
   1 C1            -0.0088     1.4715     0.0928 C.2     
   2 C2             0.0065    -0.0048     0.0421 C.ar    
   3 C3            -1.1859    -0.7229     0.1546 C.ar    
   4 C4            -1.1644    -2.1011     0.1065 C.ar    
   5 C5             0.0353    -2.7724    -0.0523 C.ar    
   6 C6             1.2203    -2.0673    -0.1644 C.ar    
   7 C7             1.2125    -0.6882    -0.1242 C.ar    
   8 O8             0.6868     2.0589     0.8969 O.2     
   9 O9            -0.7901     2.1665    -0.7565 O.3     
  10 N10            2.4805     0.0648    -0.2503 N.pl3   
  11 O11            3.5430    -0.5304    -0.2687 O.2     
  12 O12            2.4615     1.2796    -0.3358 O.2     
  13 C13           -0.7547     3.6142    -0.6500 C.3     
  14 H14           -2.1228    -0.2002     0.2793 H       
  15 H15           -2.0858    -2.6577     0.1934 H       
  16 H16            0.0466    -3.8518    -0.0886 H       
  17 H17            2.1531    -2.5974    -0.2882 H       
  18 H18           -1.0707     3.9128     0.3496 H       
  19 H19            0.2607     3.9671    -0.8306 H       
  20 H20           -1.4275     4.0494    -1.3889 H       
@<TRIPOS>BOND
   1    1    2 1
   2    1    8 2
   3    1    9 1
   4    2    3 ar
   5    2    7 ar
   6    3    4 ar
   7    3   14 1
   8    4    5 ar
   9    4   15 1
  10    5    6 ar
  11    5   16 1
  12    6    7 ar
  13    6   17 1
  14    7   10 1
  15    9   13 1
  16   10   11 2
  17   10   12 2
  18   13   18 1
  19   13   19 1
  20   13   20 1

#	End of record

