#	Name: ASD07930405
#	Creating user name:	WinNT
#	Creation time:	15. 06. 2019 21:12

#	Modifying user name:	WinNT
#	Modification time:	15. 06. 2019 21:12

#	Program:	/corina/corina34_cracker 3.40 0067  02.08.2006

@<TRIPOS>MOLECULE
ASD07930405
  47   49    0    0    0
SMALL
NO_CHARGES


@<TRIPOS>ATOM
   1 N1             1.9372    -2.8814    -0.4249 N.2     
   2 N2            -0.3255    -2.8522    -1.0084 N.pl3   
   3 C3            -1.3636    -1.8167    -0.9740 C.3     
   4 C4            -1.3744    -1.0662    -2.3129 C.3     
   5 S5             0.2940    -0.4002    -2.6079 S.o2    
   6 N6             1.2692    -1.7269    -2.3521 N.am    
   7 C7             0.9894    -2.5003    -1.2345 C.2     
   8 C8             2.3674    -2.0606    -3.2625 C.3     
   9 C9            -1.0671    -0.8336     0.1603 C.3     
  10 C10           -2.7077    -2.4589    -0.7461 C.ar    
  11 C11           -3.1981    -3.3781    -1.6578 C.ar    
  12 C12           -4.4330    -3.9703    -1.4515 C.ar    
  13 C13           -5.1789    -3.6438    -0.3341 C.ar    
  14 C14           -4.6870    -2.7203     0.5825 C.ar    
  15 C15           -3.4465    -2.1337     0.3754 C.ar    
  16 O16            0.4749    -0.0830    -3.9812 O.2     
  17 O17            0.6599     0.5151    -1.5844 O.2     
  18 F18           -2.4711    -3.6977    -2.7507 F       
  19 F19           -6.3839    -4.2205    -0.1330 F       
  20 N20           -5.4402    -2.3870     1.7152 N.am    
  21 C21           -4.8194    -2.0963     2.8757 C.2     
  22 O22           -3.6127    -2.2106     2.9646 O.2     
  23 C23           -5.6078    -1.6375     4.0426 C.ar    
  24 N24           -6.9285    -1.5116     3.9475 N.ar    
  25 C25           -7.6267    -1.1030     4.9880 C.ar    
  26 C26           -6.9868    -0.8040     6.1820 C.ar    
  27 N27           -5.6749    -0.9268     6.2819 N.ar    
  28 C28           -4.9682    -1.3415     5.2460 C.ar    
  29 C29           -7.7901    -0.3372     7.3685 C.3     
  30 H30            2.8562    -2.6246    -0.5990 H       
  31 H31           -0.5624    -3.7824    -0.8685 H       
  32 H32           -1.6437    -1.7520    -3.1163 H       
  33 H33           -2.0942    -0.2488    -2.2702 H       
  34 H34            3.2793    -1.5654    -2.9287 H       
  35 H35            2.5207    -3.1398    -3.2667 H       
  36 H36            2.1194    -1.7249    -4.2694 H       
  37 H37           -0.0957    -0.3683    -0.0067 H       
  38 H38           -1.8389    -0.0643     0.1854 H       
  39 H39           -1.0556    -1.3678     1.1104 H       
  40 H40           -4.8137    -4.6871    -2.1640 H       
  41 H41           -3.0628    -1.4165     1.0858 H       
  42 H42           -6.4086    -2.3654     1.6646 H       
  43 H43           -8.6991    -1.0004     4.9109 H       
  44 H44           -3.8960    -1.4419     5.3278 H       
  45 H45           -8.0986    -1.1991     7.9601 H       
  46 H46           -7.1800     0.3253     7.9824 H       
  47 H47           -8.6728     0.1998     7.0211 H       
@<TRIPOS>BOND
   1    1    7 2
   2    1   30 1
   3    2    3 1
   4    2    7 1
   5    2   31 1
   6    3    4 1
   7    3    9 1
   8    3   10 1
   9    4    5 1
  10    4   32 1
  11    4   33 1
  12    5    6 am
  13    5   16 2
  14    5   17 2
  15    6    7 1
  16    6    8 1
  17    8   34 1
  18    8   35 1
  19    8   36 1
  20    9   37 1
  21    9   38 1
  22    9   39 1
  23   10   11 ar
  24   10   15 ar
  25   11   12 ar
  26   11   18 1
  27   12   13 ar
  28   12   40 1
  29   13   14 ar
  30   13   19 1
  31   14   15 ar
  32   14   20 1
  33   15   41 1
  34   20   21 am
  35   20   42 1
  36   21   22 2
  37   21   23 1
  38   23   24 ar
  39   23   28 ar
  40   24   25 ar
  41   25   26 ar
  42   25   43 1
  43   26   27 ar
  44   26   29 1
  45   27   28 ar
  46   28   44 1
  47   29   45 1
  48   29   46 1
  49   29   47 1

#	End of record

