#	Name: ASD00238006
#	Creating user name:	WinNT
#	Creation time:	15. 06. 2019 18:33

#	Modifying user name:	WinNT
#	Modification time:	15. 06. 2019 18:33

#	Program:	/corina/corina34_cracker 3.40 0067  02.08.2006

@<TRIPOS>MOLECULE
ASD00238006
  50   49    0    0    0
SMALL
NO_CHARGES


@<TRIPOS>ATOM
   1 C1            -0.5968     1.2019    -1.0715 C.2     
   2 C2            -0.6442    -0.2961    -0.9141 C.3     
   3 C3             0.7771    -0.8598    -0.9677 C.3     
   4 C4             0.7297    -2.3578    -0.8103 C.2     
   5 O5            -0.3320    -2.9172    -0.6697 O.2     
   6 O6             0.4650     1.7613    -1.2120 O.2     
   7 O7            -1.7344     1.9142    -1.0610 O.3     
   8 O8             1.8669    -3.0707    -0.8263 O.3     
   9 N9            -3.5791     3.8312     0.1617 N.4     
  10 C10           -3.0039     3.9889    -1.1808 C.3     
  11 C11           -1.6130     3.3526    -1.2177 C.3     
  12 C12           -2.6560     4.3898     1.1586 C.3     
  13 C13           -4.8630     4.5416     0.2309 C.3     
  14 C14           -3.7934     2.4044     0.4381 C.3     
  15 N15            3.8963    -4.7440     0.4780 N.4     
  16 C16            3.1359    -5.1460    -0.7129 C.3     
  17 C17            1.7455    -4.5091    -0.6693 C.3     
  18 C18            3.2128    -5.2322     1.6832 C.3     
  19 C19            5.2466    -5.3190     0.4140 C.3     
  20 C20            3.9898    -3.2788     0.5277 C.3     
  21 H21           -1.0985    -0.5465     0.0446 H       
  22 H22           -1.2368    -0.7276    -1.7208 H       
  23 H23            1.2314    -0.6094    -1.9263 H       
  24 H24            1.3698    -0.4283    -0.1610 H       
  25 H25           -3.6472     3.4986    -1.9115 H       
  26 H26           -2.9248     5.0494    -1.4199 H       
  27 H27           -1.0070     3.7566    -0.4066 H       
  28 H28           -1.1369     3.5752    -2.1726 H       
  29 H29           -2.4970     5.4485     0.9535 H       
  30 H30           -3.0827     4.2728     2.1548 H       
  31 H31           -1.7033     3.8627     1.1073 H       
  32 H32           -5.5479     4.1271    -0.5088 H       
  33 H33           -5.2898     4.4246     1.2271 H       
  34 H34           -4.7040     5.6003     0.0258 H       
  35 H35           -2.8300     1.9090     0.5589 H       
  36 H36           -4.3754     2.2951     1.3532 H       
  37 H37           -4.3338     1.9506    -0.3926 H       
  38 H38            3.6604    -4.8127    -1.6084 H       
  39 H39            3.0379    -6.2314    -0.7321 H       
  40 H40            1.2738    -4.7316     0.2879 H       
  41 H41            1.1355    -4.9126    -1.4774 H       
  42 H42            3.1434    -6.3194     1.6463 H       
  43 H43            3.7770    -4.9339     2.5668 H       
  44 H44            2.2109    -4.8056     1.7307 H       
  45 H45            5.7537    -4.9567    -0.4802 H       
  46 H46            5.8107    -5.0207     1.2977 H       
  47 H47            5.1772    -6.4062     0.3771 H       
  48 H48            3.0091    -2.8596     0.7524 H       
  49 H49            4.6967    -2.9860     1.3040 H       
  50 H50            4.3330    -2.9038    -0.4364 H       
@<TRIPOS>BOND
   1    1    2 1
   2    1    6 2
   3    1    7 1
   4    2    3 1
   5    2   21 1
   6    2   22 1
   7    3    4 1
   8    3   23 1
   9    3   24 1
  10    4    5 2
  11    4    8 1
  12    7   11 1
  13    8   17 1
  14    9   10 1
  15    9   12 1
  16    9   13 1
  17    9   14 1
  18   10   11 1
  19   10   25 1
  20   10   26 1
  21   11   27 1
  22   11   28 1
  23   12   29 1
  24   12   30 1
  25   12   31 1
  26   13   32 1
  27   13   33 1
  28   13   34 1
  29   14   35 1
  30   14   36 1
  31   14   37 1
  32   15   16 1
  33   15   18 1
  34   15   19 1
  35   15   20 1
  36   16   17 1
  37   16   38 1
  38   16   39 1
  39   17   40 1
  40   17   41 1
  41   18   42 1
  42   18   43 1
  43   18   44 1
  44   19   45 1
  45   19   46 1
  46   19   47 1
  47   20   48 1
  48   20   49 1
  49   20   50 1

#	End of record

