#	Name: ASD01811354
#	Creating user name:	WinNT
#	Creation time:	15. 06. 2019 19:26

#	Modifying user name:	WinNT
#	Modification time:	15. 06. 2019 19:26

#	Program:	/corina/corina34_cracker 3.40 0067  02.08.2006

@<TRIPOS>MOLECULE
ASD01811354
  59   62    0    0    0
SMALL
NO_CHARGES


@<TRIPOS>ATOM
   1 C1            -0.9496     1.1999     0.6226 C.2     
   2 N2            -0.9282    -0.1351     0.4389 N.am    
   3 O3            -0.7897     1.6628     1.7347 O.2     
   4 O4            -1.1426     2.0211    -0.4272 O.3     
   5 C5            -1.2288     3.3517    -0.1623 C.ar    
   6 C6            -2.4443     4.0042    -0.2833 C.ar    
   7 C7            -2.5283     5.3694    -0.0101 C.ar    
   8 C8            -1.3861     6.0690     0.3836 C.ar    
   9 C9            -0.1802     5.4091     0.5010 C.ar    
  10 C10           -0.0996     4.0545     0.2348 C.ar    
  11 C11           -1.4703     7.5442     0.6798 C.3     
  12 C12           -3.8224     6.0733    -0.1374 C.2     
  13 O13           -4.2533     6.7260     0.7930 O.2     
  14 N14           -4.5240     5.9912    -1.2852 N.am    
  15 C15           -5.7678     6.7539    -1.4584 C.3     
  16 C16           -5.6647     7.5798    -2.7445 C.3     
  17 C17           -5.3272     6.6535    -3.9151 C.3     
  18 C18           -3.9755     5.9816    -3.6629 C.3     
  19 C19           -4.0565     5.1420    -2.3893 C.3     
  20 F20           -6.3191     5.6744    -4.0357 F       
  21 C21           -5.2585     7.4575    -5.1879 C.ar    
  22 C22           -5.2775     6.8125    -6.4118 C.ar    
  23 C23           -5.2149     7.5423    -7.5807 C.ar    
  24 C24           -5.1327     8.9351    -7.5268 C.ar    
  25 C25           -5.1144     9.5796    -6.2882 C.ar    
  26 C26           -5.1825     8.8377    -5.1272 C.ar    
  27 C27           -5.0669     9.6991    -8.7362 C.1     
  28 N28           -5.0147    10.3052    -9.6956 N.1     
  29 O29           -2.0275    -2.7340     2.6436 O.3     
  30 C30           -2.0462    -1.3464     2.2888 C.3     
  31 C31           -0.7122    -1.0282     1.5799 C.3     
  32 C32           -0.2492    -2.4319     1.1033 C.3     
  33 C33           -0.7756    -3.3226     2.2567 C.3     
  34 H34           -1.0558    -0.5046    -0.4489 H       
  35 H35           -3.3244     3.4577    -0.5886 H       
  36 H36            0.7028     5.9514     0.8053 H       
  37 H37            0.8462     3.5423     0.3324 H       
  38 H38           -1.6257     7.6919     1.7485 H       
  39 H39           -0.5421     8.0290     0.3772 H       
  40 H40           -2.3038     7.9786     0.1279 H       
  41 H41           -6.6107     6.0666    -1.5320 H       
  42 H42           -5.9098     7.4196    -0.6071 H       
  43 H43           -6.6164     8.0757    -2.9357 H       
  44 H44           -4.8797     8.3279    -2.6345 H       
  45 H45           -3.7249     5.3401    -4.5077 H       
  46 H46           -3.2064     6.7448    -3.5442 H       
  47 H47           -3.0697     4.7445    -2.1520 H       
  48 H48           -4.7569     4.3206    -2.5404 H       
  49 H49           -5.3411     5.7351    -6.4520 H       
  50 H50           -5.2290     7.0374    -8.5354 H       
  51 H51           -5.0510    10.6566    -6.2394 H       
  52 H52           -5.1726     9.3352    -4.1686 H       
  53 H53           -2.8796    -1.1483     1.6147 H       
  54 H54           -2.1424    -0.7363     3.1869 H       
  55 H55            0.0059    -0.5995     2.2790 H       
  56 H56           -0.7169    -2.6990     0.1557 H       
  57 H57            0.8372    -2.4837     1.0313 H       
  58 H58           -0.0771    -3.3102     3.0933 H       
  59 H59           -0.9296    -4.3432     1.9064 H       
@<TRIPOS>BOND
   1    1    2 am
   2    1    3 2
   3    1    4 1
   4    2   31 1
   5    2   34 1
   6    4    5 1
   7    5    6 ar
   8    5   10 ar
   9    6    7 ar
  10    6   35 1
  11    7    8 ar
  12    7   12 1
  13    8    9 ar
  14    8   11 1
  15    9   10 ar
  16    9   36 1
  17   10   37 1
  18   11   38 1
  19   11   39 1
  20   11   40 1
  21   12   13 2
  22   12   14 am
  23   14   15 1
  24   14   19 1
  25   15   16 1
  26   15   41 1
  27   15   42 1
  28   16   17 1
  29   16   43 1
  30   16   44 1
  31   17   18 1
  32   17   20 1
  33   17   21 1
  34   18   19 1
  35   18   45 1
  36   18   46 1
  37   19   47 1
  38   19   48 1
  39   21   22 ar
  40   21   26 ar
  41   22   23 ar
  42   22   49 1
  43   23   24 ar
  44   23   50 1
  45   24   25 ar
  46   24   27 1
  47   25   26 ar
  48   25   51 1
  49   26   52 1
  50   27   28 3
  51   29   30 1
  52   29   33 1
  53   30   31 1
  54   30   53 1
  55   30   54 1
  56   31   32 1
  57   31   55 1
  58   32   33 1
  59   32   56 1
  60   32   57 1
  61   33   58 1
  62   33   59 1

#	End of record

