#	Name: ASD08178282
#	Creating user name:	WinNT
#	Creation time:	15. 06. 2019 21:18

#	Modifying user name:	WinNT
#	Modification time:	15. 06. 2019 21:18

#	Program:	/corina/corina34_cracker 3.40 0067  02.08.2006

@<TRIPOS>MOLECULE
ASD08178282
  84   88    0    0    0
SMALL
NO_CHARGES


@<TRIPOS>ATOM
   1 N1            -0.0168     1.3902     0.0097 N.am    
   2 C2            -0.2173     0.0103     0.0231 C.ar    
   3 C3             0.8683    -0.8557    -0.0926 C.ar    
   4 N4            -1.4399    -0.4832     0.1513 N.ar    
   5 N5            -1.6667    -1.7463     0.1686 N.ar    
   6 C6            -0.7002    -2.6368     0.0602 C.ar    
   7 C7             0.6159    -2.2190    -0.0733 C.ar    
   8 C8            -1.0247    -4.1082     0.0874 C.3     
   9 C9            -1.8115    -4.4335     1.3586 C.3     
  10 C10           -2.1410    -5.9273     1.3862 C.3     
  11 C11           -2.9278    -6.2527     2.6574 C.3     
  12 C12           -3.2523    -7.7241     2.6845 C.2     
  13 N13           -2.5213    -8.6581     3.2049 N.2     
  14 N14           -2.9690    -9.8359     3.1257 N.2     
  15 C15           -4.1130   -10.0077     2.5350 C.2     
  16 S16           -4.6995    -8.4828     2.0200 S.3     
  17 N17           -4.7575   -11.2270     2.3553 N.am    
  18 C18           -4.1929   -12.3617     2.8139 C.2     
  19 C19           -4.8913   -13.6828     2.6192 C.3     
  20 O20           -3.1229   -12.3195     3.3832 O.2     
  21 C21           -4.0568   -14.7853     3.2184 C.ar    
  22 C22           -4.2366   -15.1477     4.5400 C.ar    
  23 C23           -3.4710   -16.1591     5.0898 C.ar    
  24 C24           -2.5260   -16.8081     4.3177 C.ar    
  25 C25           -2.3467   -16.4462     2.9955 C.ar    
  26 C26           -3.1151   -15.4380     2.4446 C.ar    
  27 C27           -1.0750     2.2250     0.0167 C.2     
  28 C28           -0.8601     3.7130     0.1198 C.3     
  29 O29           -2.2000     1.7786    -0.0599 O.2     
  30 C30           -2.1935     4.4152     0.1067 C.ar    
  31 C31           -2.8565     4.6619     1.2943 C.ar    
  32 C32           -4.0796     5.3059     1.2822 C.ar    
  33 C33           -4.6395     5.7036     0.0825 C.ar    
  34 C34           -3.9760     5.4577    -1.1051 C.ar    
  35 C35           -2.7509     4.8175    -1.0926 C.ar    
  36 C36           -1.3160   -17.1534     2.1537 C.3     
  37 C37           -1.9487   -18.3435     1.4796 C.2     
  38 N38           -1.2117   -19.1308     0.6713 N.am    
  39 O39           -3.1211   -18.5928     1.6644 O.2     
  40 C40            0.2135   -18.9452     0.3612 C.3     
  41 C41            0.6184   -20.0649    -0.6206 C.3     
  42 C42           -0.7370   -20.4822    -1.2499 C.3     
  43 C43           -1.6994   -20.3244    -0.0434 C.3     
  44 C44           -1.1239   -19.5413    -2.3927 C.3     
  45 C45           -0.6953   -21.9347    -1.7287 C.3     
  46 H46            0.8842     1.7494    -0.0006 H       
  47 H47            1.8745    -0.4770    -0.1944 H       
  48 H48            1.4199    -2.9345    -0.1636 H       
  49 H49           -1.6240    -4.3643    -0.7864 H       
  50 H50           -0.0997    -4.6845     0.0751 H       
  51 H51           -1.2123    -4.1774     2.2323 H       
  52 H52           -2.7366    -3.8571     1.3708 H       
  53 H53           -2.7402    -6.1835     0.5124 H       
  54 H54           -1.2159    -6.5037     1.3739 H       
  55 H55           -2.3286    -5.9966     3.5311 H       
  56 H56           -3.8529    -5.6763     2.6696 H       
  57 H57           -5.6133   -11.2607     1.9000 H       
  58 H58           -5.8640   -13.6554     3.1104 H       
  59 H59           -5.0274   -13.8683     1.5537 H       
  60 H60           -4.9750   -14.6406     5.1433 H       
  61 H61           -3.6110   -16.4418     6.1227 H       
  62 H62           -1.9273   -17.5977     4.7474 H       
  63 H63           -2.9751   -15.1553     1.4117 H       
  64 H64           -0.3385     3.9413     1.0493 H       
  65 H65           -0.2620     4.0532    -0.7255 H       
  66 H66           -2.4191     4.3512     2.2316 H       
  67 H67           -4.5979     5.4981     2.2100 H       
  68 H68           -5.5954     6.2062     0.0730 H       
  69 H69           -4.4136     5.7681    -2.0424 H       
  70 H70           -2.2326     4.6254    -2.0204 H       
  71 H71           -0.9326   -16.4687     1.3973 H       
  72 H72           -0.4963   -17.4890     2.7890 H       
  73 H73            0.3680   -17.9712    -0.1031 H       
  74 H74            0.8044   -19.0209     1.2740 H       
  75 H75            1.2963   -19.6822    -1.3836 H       
  76 H76            1.0695   -20.9013    -0.0868 H       
  77 H77           -1.6502   -21.2039     0.5986 H       
  78 H78           -2.7200   -20.1638    -0.3907 H       
  79 H79           -0.3685   -19.5922    -3.1768 H       
  80 H80           -2.0900   -19.8411    -2.7989 H       
  81 H81           -1.1889   -18.5203    -2.0165 H       
  82 H82           -0.4605   -22.5878    -0.8881 H       
  83 H83           -1.6659   -22.2091    -2.1419 H       
  84 H84            0.0703   -22.0422    -2.4971 H       
@<TRIPOS>BOND
   1    1    2 1
   2    1   27 am
   3    1   46 1
   4    2    3 ar
   5    2    4 ar
   6    3    7 ar
   7    3   47 1
   8    4    5 ar
   9    5    6 ar
  10    6    7 ar
  11    6    8 1
  12    7   48 1
  13    8    9 1
  14    8   49 1
  15    8   50 1
  16    9   10 1
  17    9   51 1
  18    9   52 1
  19   10   11 1
  20   10   53 1
  21   10   54 1
  22   11   12 1
  23   11   55 1
  24   11   56 1
  25   12   13 2
  26   12   16 1
  27   13   14 1
  28   14   15 2
  29   15   16 1
  30   15   17 1
  31   17   18 am
  32   17   57 1
  33   18   19 1
  34   18   20 2
  35   19   21 1
  36   19   58 1
  37   19   59 1
  38   21   22 ar
  39   21   26 ar
  40   22   23 ar
  41   22   60 1
  42   23   24 ar
  43   23   61 1
  44   24   25 ar
  45   24   62 1
  46   25   26 ar
  47   25   36 1
  48   26   63 1
  49   27   28 1
  50   27   29 2
  51   28   30 1
  52   28   64 1
  53   28   65 1
  54   30   31 ar
  55   30   35 ar
  56   31   32 ar
  57   31   66 1
  58   32   33 ar
  59   32   67 1
  60   33   34 ar
  61   33   68 1
  62   34   35 ar
  63   34   69 1
  64   35   70 1
  65   36   37 1
  66   36   71 1
  67   36   72 1
  68   37   38 am
  69   37   39 2
  70   38   40 1
  71   38   43 1
  72   40   41 1
  73   40   73 1
  74   40   74 1
  75   41   42 1
  76   41   75 1
  77   41   76 1
  78   42   43 1
  79   42   44 1
  80   42   45 1
  81   43   77 1
  82   43   78 1
  83   44   79 1
  84   44   80 1
  85   44   81 1
  86   45   82 1
  87   45   83 1
  88   45   84 1

#	End of record

