#	Name: ASD09740081
#	Creating user name:	WinNT
#	Creation time:	15. 06. 2019 21:22

#	Modifying user name:	WinNT
#	Modification time:	15. 06. 2019 21:22

#	Program:	/corina/corina34_cracker 3.40 0067  02.08.2006

@<TRIPOS>MOLECULE
ASD09740081
  38   40    0    0    0
SMALL
NO_CHARGES


@<TRIPOS>ATOM
   1 O1            -0.0144     1.2087     0.0087 O.3     
   2 N2             0.0021    -0.0041     0.0020 N.2     
   3 C3             1.2352     1.6834    -0.0007 C.2     
   4 N4             2.0399     0.6500    -0.0139 N.2     
   5 C5             1.2356    -0.4367    -0.0121 C.2     
   6 C6             1.6717    -1.8560    -0.0239 C.ar    
   7 C7             1.6416     3.1345     0.0025 C.3     
   8 C8             0.7366    -2.8940    -0.0205 C.ar    
   9 C9             3.0281    -2.1896    -0.0445 C.ar    
  10 C10            3.3901    -3.5217    -0.0554 C.ar    
  11 N11            2.4754    -4.4718    -0.0465 N.ar    
  12 C12            1.1850    -4.1995    -0.0323 C.ar    
  13 C13            1.0725     3.8262    -1.2379 C.3     
  14 C14            1.4851     5.2995    -1.2347 C.3     
  15 C15            0.9403     5.9790     0.0233 C.3     
  16 C16            1.5094     5.2873     1.2636 C.3     
  17 C17            1.0968     3.8140     1.2604 C.3     
  18 C18            1.3529     7.4523     0.0265 C.3     
  19 C19            0.7053     8.1607     1.2180 C.3     
  20 H20            2.7291     3.2073    -0.0078 H       
  21 H21           -0.3215    -2.6782    -0.0085 H       
  22 H22            3.7824    -1.4168    -0.0522 H       
  23 H23            4.4363    -3.7894    -0.0717 H       
  24 H24            0.4698    -5.0086    -0.0251 H       
  25 H25            1.4606     3.3422    -2.1341 H       
  26 H26           -0.0151     3.7535    -1.2277 H       
  27 H27            2.5726     5.3723    -1.2449 H       
  28 H28            1.0796     5.7923    -2.1184 H       
  29 H29           -0.1472     5.9062     0.0335 H       
  30 H30            2.5969     5.3600     1.2534 H       
  31 H31            1.1213     5.7713     2.1598 H       
  32 H32            0.0093     3.7412     1.2707 H       
  33 H33            1.5023     3.3212     2.1441 H       
  34 H34            2.4375     7.5257     0.1058 H       
  35 H35            1.0236     7.9239    -0.8994 H       
  36 H36            1.0346     7.6892     2.1439 H       
  37 H37            0.9992     9.2103     1.2202 H       
  38 H38           -0.3793     8.0873     1.1386 H       
@<TRIPOS>BOND
   1    1    2 1
   2    1    3 1
   3    2    5 2
   4    3    4 2
   5    3    7 1
   6    4    5 1
   7    5    6 1
   8    6    8 ar
   9    6    9 ar
  10    7   13 1
  11    7   17 1
  12    7   20 1
  13    8   12 ar
  14    8   21 1
  15    9   10 ar
  16    9   22 1
  17   10   11 ar
  18   10   23 1
  19   11   12 ar
  20   12   24 1
  21   13   14 1
  22   13   25 1
  23   13   26 1
  24   14   15 1
  25   14   27 1
  26   14   28 1
  27   15   16 1
  28   15   18 1
  29   15   29 1
  30   16   17 1
  31   16   30 1
  32   16   31 1
  33   17   32 1
  34   17   33 1
  35   18   19 1
  36   18   34 1
  37   18   35 1
  38   19   36 1
  39   19   37 1
  40   19   38 1

#	End of record

