#	Name: ASD03950033
#	Creating user name:	WinNT
#	Creation time:	15. 06. 2019 20:48

#	Modifying user name:	WinNT
#	Modification time:	15. 06. 2019 20:48

#	Program:	/corina/corina34_cracker 3.40 0067  02.08.2006

@<TRIPOS>MOLECULE
ASD03950033
  53   56    0    0    0
SMALL
NO_CHARGES


@<TRIPOS>ATOM
   1 N1            -0.0169     1.3942     0.0097 N.pl3   
   2 N2             0.0021    -0.0041     0.0020 N.2     
   3 C3             1.2311    -0.4341    -0.0120 C.2     
   4 C4             2.1094     0.7333    -0.0141 C.ar    
   5 C5             3.4968     0.8989    -0.0268 C.ar    
   6 C6             4.0413     2.1754    -0.0256 C.ar    
   7 C7             3.2114     3.2978    -0.0117 C.ar    
   8 C8             1.8300     3.1501     0.0011 C.ar    
   9 C9             1.2665     1.8606    -0.0000 C.ar    
  10 C10            0.9578     4.3397     0.0153 C.2     
  11 O11           -0.2509     4.2074     0.0265 O.2     
  12 N12            1.5006     5.5734     0.0159 N.am    
  13 C13            5.5152     2.3484    -0.0386 C.ar    
  14 C14            6.1119     3.2052    -0.9646 C.ar    
  15 C15            7.4853     3.3619    -0.9709 C.ar    
  16 C16            8.2662     2.6712    -0.0622 C.ar    
  17 C17            7.6791     1.8207     0.8569 C.ar    
  18 C18            6.3080     1.6607     0.8770 C.ar    
  19 F19            5.3492     3.8793    -1.8529 F       
  20 N20            1.2106    -4.6672    -0.0333 N.am    
  21 C21            1.6136    -4.0358     1.2306 C.3     
  22 C22            1.1380    -2.5796     1.2280 C.3     
  23 C23            1.6687    -1.8761    -0.0232 C.3     
  24 C24            1.1161    -2.5669    -1.2720 C.3     
  25 C25            1.5915    -4.0230    -1.2977 C.3     
  26 S26            0.3494    -6.0817    -0.0330 S.o2    
  27 O27            0.6707    -6.6878    -1.2774 O.2     
  28 O28            0.6975    -6.7036     1.1964 O.2     
  29 C29           -1.3862    -5.5548    -0.0108 C.3     
  30 C30           -2.2932    -6.7870    -0.0088 C.3     
  31 H31           -0.8151     1.9454     0.0167 H       
  32 H32            4.1445     0.0347    -0.0373 H       
  33 H33            3.6456     4.2867    -0.0105 H       
  34 H34            2.4648     5.6790     0.0070 H       
  35 H35            0.9271     6.3556     0.0252 H       
  36 H36            7.9491     4.0245    -1.6866 H       
  37 H37            9.3390     2.7961    -0.0706 H       
  38 H38            8.2944     1.2838     1.5637 H       
  39 H39            5.8512     0.9997     1.5987 H       
  40 H40            1.1582    -4.5675     2.0661 H       
  41 H41            2.6992    -4.0655     1.3241 H       
  42 H42            0.0484    -2.5528     1.2260 H       
  43 H43            1.5132    -2.0728     2.1171 H       
  44 H44            2.7576    -1.9251    -0.0331 H       
  45 H45            0.0267    -2.5402    -1.2505 H       
  46 H46            1.4757    -2.0510    -2.1623 H       
  47 H47            2.6753    -4.0516    -1.4105 H       
  48 H48            1.1215    -4.5462    -2.1305 H       
  49 H49           -1.5750    -4.9633     0.8850 H       
  50 H50           -1.5943    -4.9520    -0.8948 H       
  51 H51           -2.1045    -7.3785    -0.9047 H       
  52 H52           -2.0852    -7.3898     0.8751 H       
  53 H53           -3.3362    -6.4704     0.0045 H       
@<TRIPOS>BOND
   1    1    2 1
   2    1    9 1
   3    1   31 1
   4    2    3 2
   5    3    4 1
   6    3   23 1
   7    4    5 ar
   8    4    9 ar
   9    5    6 ar
  10    5   32 1
  11    6    7 ar
  12    6   13 1
  13    7    8 ar
  14    7   33 1
  15    8    9 ar
  16    8   10 1
  17   10   11 2
  18   10   12 am
  19   12   34 1
  20   12   35 1
  21   13   14 ar
  22   13   18 ar
  23   14   15 ar
  24   14   19 1
  25   15   16 ar
  26   15   36 1
  27   16   17 ar
  28   16   37 1
  29   17   18 ar
  30   17   38 1
  31   18   39 1
  32   20   21 1
  33   20   25 1
  34   20   26 am
  35   21   22 1
  36   21   40 1
  37   21   41 1
  38   22   23 1
  39   22   42 1
  40   22   43 1
  41   23   24 1
  42   23   44 1
  43   24   25 1
  44   24   45 1
  45   24   46 1
  46   25   47 1
  47   25   48 1
  48   26   27 2
  49   26   28 2
  50   26   29 1
  51   29   30 1
  52   29   49 1
  53   29   50 1
  54   30   51 1
  55   30   52 1
  56   30   53 1

#	End of record

