#	Name: ASD01810077
#	Creating user name:	WinNT
#	Creation time:	15. 06. 2019 19:23

#	Modifying user name:	WinNT
#	Modification time:	15. 06. 2019 19:23

#	Program:	/corina/corina34_cracker 3.40 0067  02.08.2006

@<TRIPOS>MOLECULE
ASD01810077
  29   31    0    0    0
SMALL
NO_CHARGES


@<TRIPOS>ATOM
   1 C1            -0.0167     1.3804     0.0096 C.ar    
   2 C2             0.0021    -0.0041     0.0020 C.ar    
   3 C3             1.2005    -0.6935    -0.0132 C.ar    
   4 C4             2.4043    -0.0017    -0.0205 C.ar    
   5 C5             2.3825     1.4028    -0.0128 C.ar    
   6 C6             1.1684     2.0883     0.0021 C.ar    
   7 N7             3.7234    -0.4489    -0.0358 N.am    
   8 C8             4.5905     0.5782    -0.0388 C.2     
   9 C9             3.7890     1.8460    -0.0242 C.2     
  10 O10            4.2062     2.9855    -0.0225 O.2     
  11 O11            5.8007     0.4950    -0.0505 O.2     
  12 C12            4.1161    -1.8603    -0.0472 C.3     
  13 C13            4.2368    -2.3366    -1.4719 C.ar    
  14 C14            5.4456    -2.2339    -2.1344 C.ar    
  15 C15            5.5578    -2.6709    -3.4412 C.ar    
  16 C16            4.4602    -3.2112    -4.0863 C.ar    
  17 C17            3.2492    -3.3141    -3.4225 C.ar    
  18 C18            3.1401    -2.8813    -2.1135 C.ar    
  19 Cl19           4.6005    -3.7596    -5.7275 Cl      
  20 Cl20           1.8704    -3.9916    -4.2311 Cl      
  21 H21           -0.9596     1.9070     0.0170 H       
  22 H22           -0.9291    -0.5511     0.0084 H       
  23 H23            1.2002    -1.7735    -0.0190 H       
  24 H24            1.1552     3.1682     0.0077 H       
  25 H25            5.0759    -1.9745     0.4566 H       
  26 H26            3.3611    -2.4517     0.4708 H       
  27 H27            6.3028    -1.8117    -1.6310 H       
  28 H28            6.5025    -2.5901    -3.9584 H       
  29 H29            2.1959    -2.9612    -1.5953 H       
@<TRIPOS>BOND
   1    1    2 ar
   2    1    6 ar
   3    1   21 1
   4    2    3 ar
   5    2   22 1
   6    3    4 ar
   7    3   23 1
   8    4    5 ar
   9    4    7 1
  10    5    6 ar
  11    5    9 1
  12    6   24 1
  13    7    8 am
  14    7   12 1
  15    8    9 1
  16    8   11 2
  17    9   10 2
  18   12   13 1
  19   12   25 1
  20   12   26 1
  21   13   14 ar
  22   13   18 ar
  23   14   15 ar
  24   14   27 1
  25   15   16 ar
  26   15   28 1
  27   16   17 ar
  28   16   19 1
  29   17   18 ar
  30   17   20 1
  31   18   29 1

#	End of record

