#	Name: ASD01350052
#	Creating user name:	WinNT
#	Creation time:	15. 06. 2019 19:16

#	Modifying user name:	WinNT
#	Modification time:	15. 06. 2019 19:16

#	Program:	/corina/corina34_cracker 3.40 0067  02.08.2006

@<TRIPOS>MOLECULE
ASD01350052
  26   28    0    0    0
SMALL
NO_CHARGES


@<TRIPOS>ATOM
   1 N1            -0.0169     1.3946     0.0097 N.pl3   
   2 C2             0.0021    -0.0041     0.0020 C.ar    
   3 C3             1.2171    -0.6830    -0.0132 C.ar    
   4 C4             1.2481    -2.0607    -0.0214 C.ar    
   5 C5             0.0619    -2.7879    -0.0140 C.ar    
   6 C6            -1.1638    -2.1052     0.0019 C.ar    
   7 C7            -1.1878    -0.7122     0.0153 C.ar    
   8 C8            -2.4195    -2.8797     0.0097 C.ar    
   9 C9            -3.6621    -2.2563     0.0249 C.ar    
  10 C10           -4.8100    -3.0224     0.0313 C.ar    
  11 C11           -4.7340    -4.4070     0.0231 C.ar    
  12 C12           -3.5109    -5.0436     0.0085 C.ar    
  13 C13           -2.3400    -4.2875     0.0009 C.ar    
  14 C14           -1.0148    -4.9244    -0.0142 C.2     
  15 O15           -0.9276    -6.1382    -0.0212 O.2     
  16 N16            0.1014    -4.1744    -0.0227 N.am    
  17 H17            0.8165     1.8910     0.0044 H       
  18 H18           -0.8634     1.8681     0.0163 H       
  19 H19            2.1423    -0.1260    -0.0191 H       
  20 H20            2.1962    -2.5776    -0.0339 H       
  21 H21           -2.1312    -0.1865     0.0275 H       
  22 H22           -3.7287    -1.1784     0.0321 H       
  23 H23           -5.7759    -2.5394     0.0431 H       
  24 H24           -5.6415    -4.9924     0.0286 H       
  25 H25           -3.4605    -6.1224     0.0029 H       
  26 H26            0.9639    -4.6182    -0.0328 H       
@<TRIPOS>BOND
   1    1    2 1
   2    1   17 1
   3    1   18 1
   4    2    3 ar
   5    2    7 ar
   6    3    4 ar
   7    3   19 1
   8    4    5 ar
   9    4   20 1
  10    5    6 ar
  11    5   16 1
  12    6    7 ar
  13    6    8 1
  14    7   21 1
  15    8    9 ar
  16    8   13 ar
  17    9   10 ar
  18    9   22 1
  19   10   11 ar
  20   10   23 1
  21   11   12 ar
  22   11   24 1
  23   12   13 ar
  24   12   25 1
  25   13   14 1
  26   14   15 2
  27   14   16 am
  28   16   26 1

#	End of record

