#	Name: ASD05430042
#	Creating user name:	WinNT
#	Creation time:	15. 06. 2019 20:59

#	Modifying user name:	WinNT
#	Modification time:	15. 06. 2019 20:59

#	Program:	/corina/corina34_cracker 3.40 0067  02.08.2006

@<TRIPOS>MOLECULE
ASD05430042
  58   63    0    0    0
SMALL
NO_CHARGES


@<TRIPOS>ATOM
   1 C1            -0.0813     1.1933    -0.3636 C.ar    
   2 C2            -0.0152    -0.0172     0.3255 C.ar    
   3 C3            -1.1540    -0.5442     0.9211 C.ar    
   4 C4            -2.3544     0.1266     0.8338 C.ar    
   5 C5            -2.4282     1.3412     0.1443 C.ar    
   6 C6            -1.2808     1.8743    -0.4507 C.ar    
   7 C7            -4.8568    -0.1327    -0.2108 C.3     
   8 C8            -4.8620     1.3704    -0.0437 C.2     
   9 C9            -3.7098     2.0594     0.0501 C.2     
  10 C10           -6.1855    -0.5842    -0.8240 C.3     
  11 C11           -6.9105     0.4511    -1.6913 C.3     
  12 N12           -7.1406     1.6548    -0.8923 N.pl3   
  13 C13           -6.1628     2.0597     0.0131 C.2     
  14 C14           -8.3581     2.4545    -1.0290 C.3     
  15 C15           -8.7577     2.9677     0.3586 C.3     
  16 O16           -7.6562     3.6324     0.9683 O.3     
  17 N17           -6.4042     2.9938     0.8754 N.2     
  18 C18           -8.0985     3.6215    -1.9464 C.2     
  19 C19           -8.9491     4.0812    -2.8647 C.2     
  20 C20           -6.3035    -2.0523    -1.2406 C.3     
  21 C21           -7.0496    -1.5448    -0.0051 C.3     
  22 O22            1.0354     1.7064    -0.9449 O.3     
  23 C23            0.8948     2.9501    -1.6345 C.3     
  24 C24            1.7764    -1.1976     1.5602 C.2     
  25 N25            1.2030    -0.7039     0.4170 N.pl3   
  26 C26            2.9341    -1.7808     1.1954 C.2     
  27 N27            3.0689    -1.6497    -0.1326 N.2     
  28 C28            2.0384    -1.0065    -0.6104 C.2     
  29 C29            3.9099    -2.4624     2.1196 C.3     
  30 C30           -8.4919     5.1670    -3.5923 C.2     
  31 C31           -7.2687     5.5886    -3.2635 C.2     
  32 S32           -6.6304     4.5899    -1.9640 S.3     
  33 Cl33          -6.4381     6.9230    -4.0005 Cl      
  34 H34           -1.0985    -1.4822     1.4535 H       
  35 H35           -3.2383    -0.2857     1.2976 H       
  36 H36           -1.3333     2.8121    -0.9837 H       
  37 H37           -4.0367    -0.4223    -0.8677 H       
  38 H38           -4.7267    -0.6058     0.7625 H       
  39 H39           -3.7253     3.1393     0.0562 H       
  40 H40           -6.2952     0.6985    -2.5563 H       
  41 H41           -7.8658     0.0448    -2.0237 H       
  42 H42           -9.1588     1.8374    -1.4367 H       
  43 H43           -9.5909     3.6636     0.2607 H       
  44 H44           -9.0624     2.1267     0.9814 H       
  45 H45           -9.9210     3.6397    -3.0289 H       
  46 H46           -6.8946    -2.2777    -2.1283 H       
  47 H47           -5.4369    -2.6931    -1.0774 H       
  48 H48           -6.6741    -1.8520     0.9710 H       
  49 H49           -8.1316    -1.4366    -0.0798 H       
  50 H50            0.1698     2.8386    -2.4408 H       
  51 H51            0.5494     3.7145    -0.9384 H       
  52 H52            1.8580     3.2459    -2.0503 H       
  53 H53            1.3783    -1.1281     2.5617 H       
  54 H54            1.8772    -0.7567    -1.6487 H       
  55 H55            3.6528    -3.5182     2.2049 H       
  56 H56            4.9188    -2.3654     1.7185 H       
  57 H57            3.8640    -1.9967     3.1040 H       
  58 H58           -9.0799     5.6368    -4.3669 H       
@<TRIPOS>BOND
   1    1    2 ar
   2    1   22 1
   3    1    6 ar
   4    2    3 ar
   5    2   25 1
   6    3    4 ar
   7    3   34 1
   8    4    5 ar
   9    4   35 1
  10    5    6 ar
  11    5    9 1
  12    6   36 1
  13    7    8 1
  14    7   10 1
  15    7   37 1
  16    7   38 1
  17    8    9 2
  18    8   13 1
  19    9   39 1
  20   10   11 1
  21   10   20 1
  22   10   21 1
  23   11   12 1
  24   11   40 1
  25   11   41 1
  26   12   13 1
  27   12   14 1
  28   13   17 2
  29   14   15 1
  30   14   18 1
  31   14   42 1
  32   15   16 1
  33   15   43 1
  34   15   44 1
  35   16   17 1
  36   18   19 2
  37   18   32 1
  38   19   30 1
  39   19   45 1
  40   20   21 1
  41   20   46 1
  42   20   47 1
  43   21   48 1
  44   21   49 1
  45   22   23 1
  46   23   50 1
  47   23   51 1
  48   23   52 1
  49   24   25 1
  50   24   26 2
  51   24   53 1
  52   25   28 1
  53   26   27 1
  54   26   29 1
  55   27   28 2
  56   28   54 1
  57   29   55 1
  58   29   56 1
  59   29   57 1
  60   30   31 2
  61   30   58 1
  62   31   32 1
  63   31   33 1

#	End of record

