#	Name: ASD02030209
#	Creating user name:	WinNT
#	Creation time:	15. 06. 2019 20:14

#	Modifying user name:	WinNT
#	Modification time:	15. 06. 2019 20:14

#	Program:	/corina/corina34_cracker 3.40 0067  02.08.2006

@<TRIPOS>MOLECULE
ASD02030209
  60   63    0    0    0
SMALL
NO_CHARGES


@<TRIPOS>ATOM
   1 N1            -0.1872     1.7500    -0.2368 N.am    
   2 C2            -0.2376     0.2841    -0.3293 C.3     
   3 C3            -1.0380    -0.2549     0.8628 C.3     
   4 N4            -2.2998     0.4926     0.9577 N.am    
   5 C5            -2.2494     1.9585     1.0502 C.3     
   6 C6            -1.4488     2.4971    -0.1363 C.3     
   7 C7             0.9950     2.3972    -0.2386 C.2     
   8 C8             2.2578     1.6299    -0.1940 C.2     
   9 N9             3.4653     2.1344    -0.0590 N.2     
  10 N10            2.3743     0.2919    -0.2783 N.2     
  11 C11            3.6490     0.0067    -0.1983 C.2     
  12 N12            4.3191     1.1693    -0.0613 N.pl3   
  13 C13            5.7089     1.3047     0.0574 C.ar    
  14 O14            1.0229     3.6119    -0.2770 O.2     
  15 C15           -3.4820    -0.1546     0.9596 C.2     
  16 C16           -3.5158    -1.6357     0.9354 C.ar    
  17 O17           -4.5201     0.4765     0.9810 O.2     
  18 C18            6.2760     2.5648     0.1935 C.ar    
  19 C19            7.6460     2.6950     0.3102 C.ar    
  20 C20            8.4528     1.5721     0.2917 C.ar    
  21 C21            7.8910     0.3158     0.1560 C.ar    
  22 C22            6.5212     0.1787     0.0450 C.ar    
  23 C23           -1.1519     3.9828     0.0767 C.3     
  24 C24           -2.2519     2.3100    -1.4251 C.3     
  25 N25           -2.4198    -2.3238     1.2300 N.ar    
  26 C26           -2.4074    -3.6389     1.2206 C.ar    
  27 C27           -3.5469    -4.3591     0.9000 C.ar    
  28 C28           -4.7139    -3.6800     0.5858 C.ar    
  29 C29           -4.6992    -2.2944     0.6093 C.ar    
  30 C30           -1.1363    -4.3726     1.5629 C.3     
  31 C31           -1.1458    -4.7442     3.0471 C.3     
  32 C32           -1.0391    -5.6453     0.7192 C.3     
  33 H33           -0.7256    -0.0072    -1.2593 H       
  34 H34            0.7748    -0.1191    -0.3025 H       
  35 H35           -1.2503    -1.3134     0.7124 H       
  36 H36           -0.4637    -0.1211     1.7796 H       
  37 H37           -3.2617     2.3617     1.0234 H       
  38 H38           -1.7614     2.2498     1.9802 H       
  39 H39            4.0852    -0.9807    -0.2331 H       
  40 H40            5.6464     3.4422     0.2076 H       
  41 H41            8.0877     3.6749     0.4157 H       
  42 H42            9.5238     1.6765     0.3832 H       
  43 H43            8.5238    -0.5593     0.1412 H       
  44 H44            6.0830    -0.8028    -0.0610 H       
  45 H45           -0.4037     4.0950     0.8614 H       
  46 H46           -0.7738     4.4143    -0.8501 H       
  47 H47           -2.0666     4.4977     0.3705 H       
  48 H48           -3.1942     2.8524    -1.3480 H       
  49 H49           -1.6793     2.6945    -2.2691 H       
  50 H50           -2.4543     1.2497    -1.5763 H       
  51 H51           -3.5260    -5.4389     0.8945 H       
  52 H52           -5.6150    -4.2186     0.3321 H       
  53 H53           -5.5903    -1.7331     0.3699 H       
  54 H54           -0.2796    -3.7320     1.3542 H       
  55 H55           -1.2151    -3.8375     3.6482 H       
  56 H56           -2.0026    -5.3848     3.2558 H       
  57 H57           -0.2265    -5.2749     3.2947 H       
  58 H58           -1.0323    -5.3806    -0.3381 H       
  59 H59           -0.1197    -6.1759     0.9668 H       
  60 H60           -1.8959    -6.2859     0.9279 H       
@<TRIPOS>BOND
   1    1    2 1
   2    1    7 am
   3    1    6 1
   4    2    3 1
   5    2   33 1
   6    2   34 1
   7    3    4 1
   8    3   35 1
   9    3   36 1
  10    4    5 1
  11    4   15 am
  12    5    6 1
  13    5   37 1
  14    5   38 1
  15    6   23 1
  16    6   24 1
  17    7    8 1
  18    7   14 2
  19    8    9 2
  20    8   10 1
  21    9   12 1
  22   10   11 2
  23   11   12 1
  24   11   39 1
  25   12   13 1
  26   13   18 ar
  27   13   22 ar
  28   15   16 1
  29   15   17 2
  30   16   25 ar
  31   16   29 ar
  32   18   19 ar
  33   18   40 1
  34   19   20 ar
  35   19   41 1
  36   20   21 ar
  37   20   42 1
  38   21   22 ar
  39   21   43 1
  40   22   44 1
  41   23   45 1
  42   23   46 1
  43   23   47 1
  44   24   48 1
  45   24   49 1
  46   24   50 1
  47   25   26 ar
  48   26   27 ar
  49   26   30 1
  50   27   28 ar
  51   27   51 1
  52   28   29 ar
  53   28   52 1
  54   29   53 1
  55   30   31 1
  56   30   32 1
  57   30   54 1
  58   31   55 1
  59   31   56 1
  60   31   57 1
  61   32   58 1
  62   32   59 1
  63   32   60 1

#	End of record

