#	Name: ASD07030033
#	Creating user name:	WinNT
#	Creation time:	15. 06. 2019 21:08

#	Modifying user name:	WinNT
#	Modification time:	15. 06. 2019 21:08

#	Program:	/corina/corina34_cracker 3.40 0067  02.08.2006

@<TRIPOS>MOLECULE
ASD07030033
  27   28    0    0    0
SMALL
NO_CHARGES


@<TRIPOS>ATOM
   1 N1            -0.0178     1.4648     0.0101 N.3     
   2 C2             1.3463     2.0098    -0.0000 C.3     
   3 C3             1.5405     3.4172    -0.5679 C.3     
   4 C4             1.6467     3.1792     0.9398 C.3     
   5 C5             2.8166     3.6940    -1.3203 C.ar    
   6 C6             2.7665     4.0911    -2.6434 C.ar    
   7 C7             3.9371     4.3449    -3.3336 C.ar    
   8 C8             5.1576     4.2020    -2.7005 C.ar    
   9 C9             5.2076     3.8057    -1.3771 C.ar    
  10 C10            4.0369     3.5561    -0.6857 C.ar    
  11 C11            0.0021    -0.0041     0.0020 C.3     
  12 C12           -1.4333    -0.5336     0.0129 C.3     
  13 Cl13          -1.4089    -2.3365     0.0030 Cl      
  14 H14           -0.5413     1.8150     0.7984 H       
  15 H15            2.1415     1.2841    -0.1706 H       
  16 H16            0.6561     3.9387    -0.9340 H       
  17 H17            0.8322     3.5441     1.5655 H       
  18 H18            2.6396     3.2228     1.3874 H       
  19 H19            1.8130     4.2028    -3.1380 H       
  20 H20            3.8980     4.6546    -4.3675 H       
  21 H21            6.0721     4.3997    -3.2399 H       
  22 H22            6.1611     3.6938    -0.8826 H       
  23 H23            4.0758     3.2501     0.3493 H       
  24 H24            0.5123    -0.3556    -0.8948 H       
  25 H25            0.5293    -0.3651     0.8851 H       
  26 H26           -1.9435    -0.1821     0.9097 H       
  27 H27           -1.9605    -0.1726    -0.8702 H       
@<TRIPOS>BOND
   1    1   11 1
   2    1    2 1
   3    1   14 1
   4    2    3 1
   5    2    4 1
   6    2   15 1
   7    3    4 1
   8    3    5 1
   9    3   16 1
  10    4   17 1
  11    4   18 1
  12    5    6 ar
  13    5   10 ar
  14    6    7 ar
  15    6   19 1
  16    7    8 ar
  17    7   20 1
  18    8    9 ar
  19    8   21 1
  20    9   10 ar
  21    9   22 1
  22   10   23 1
  23   11   12 1
  24   11   24 1
  25   11   25 1
  26   12   13 1
  27   12   26 1
  28   12   27 1

#	End of record

