#	Name: ASD00069316
#	Creating user name:	WinNT
#	Creation time:	15. 06. 2019 18:29

#	Modifying user name:	WinNT
#	Modification time:	15. 06. 2019 18:29

#	Program:	/corina/corina34_cracker 3.40 0067  02.08.2006

@<TRIPOS>MOLECULE
ASD00069316
  82   85    0    0    0
SMALL
NO_CHARGES


@<TRIPOS>ATOM
   1 N1             0.3928     2.5949    -0.2392 N.3     
   2 C2             1.1232     1.3354    -0.0480 C.3     
   3 C3             2.1334     1.4977     1.0901 C.3     
   4 C4             3.1078     2.6270     0.7439 C.3     
   5 C5             2.3178     3.9161     0.5022 C.3     
   6 C6             1.3022     3.6837    -0.6188 C.3     
   7 C7             4.0681     2.8317     1.8871 C.2     
   8 O8             3.9827     2.1428     2.8816 O.2     
   9 N9             5.0220     3.7803     1.8043 N.am    
  10 C10           -0.6305     2.4433    -1.1836 C.ar    
  11 C11           -0.3276     2.0587    -2.4834 C.ar    
  12 C12           -1.3410     1.9094    -3.4139 C.ar    
  13 C13           -2.6558     2.1427    -3.0533 C.ar    
  14 C14           -2.9652     2.5261    -1.7622 C.ar    
  15 C15           -1.9566     2.6724    -0.8204 C.ar    
  16 C16           -3.2926     3.9025     0.7182 C.2     
  17 O17           -3.8782     4.4147    -0.2167 O.2     
  18 N18           -2.2695     3.0553     0.4898 N.am    
  19 C19           -3.7018     4.2082     2.1011 C.2     
  20 N20           -3.1502     3.7208     3.1902 N.2     
  21 C21           -3.7820     4.2199     4.2600 C.2     
  22 C22           -4.7701     5.0544     3.8165 C.2     
  23 N23           -4.7152     5.0508     2.4660 N.pl3   
  24 C24           -5.5830     5.8076     1.5603 C.3     
  25 O25           -6.5176     6.5724     2.3243 O.3     
  26 C26           -7.4161     7.3517     1.5323 C.3     
  27 C27           -8.3656     8.1247     2.4498 C.3     
  28 Si28          -9.5370     9.1406     1.4171 Si      
  29 C29          -10.5241     8.0146     0.3088 C.3     
  30 C30          -10.6932    10.0819     2.5344 C.3     
  31 C31           -8.5652    10.3413     0.3757 C.3     
  32 C32           -2.1669     2.7942     7.3434 C.ar    
  33 C33           -2.4275     3.0455     6.0122 C.ar    
  34 C34           -3.4659     3.9195     5.6778 C.ar    
  35 C35           -4.1981     4.5031     6.7161 C.ar    
  36 C36           -3.8706     4.1967     8.0203 C.ar    
  37 N37           -2.8822     3.3660     8.2932 N.ar    
  38 C38           -1.0543     1.8491     7.7176 C.3     
  39 F39            0.9556     1.8309    -2.8393 F       
  40 C40            5.9555     3.9793     2.9157 C.3     
  41 C41            6.9286     5.1078     2.5685 C.3     
  42 H42            0.4192     0.5417     0.2018 H       
  43 H43            1.6497     1.0777    -0.9669 H       
  44 H44            1.6064     1.7419     2.0125 H       
  45 H45            2.6862     0.5675     1.2215 H       
  46 H46            3.6630     2.3656    -0.1570 H       
  47 H47            1.7936     4.1983     1.4153 H       
  48 H48            3.0023     4.7137     0.2135 H       
  49 H49            1.8279     3.4150    -1.5351 H       
  50 H50            0.7282     4.5955    -0.7837 H       
  51 H51            5.0903     4.3312     1.0089 H       
  52 H52           -1.1046     1.6103    -4.4243 H       
  53 H53           -3.4431     2.0251    -3.7832 H       
  54 H54           -3.9931     2.7079    -1.4849 H       
  55 H55           -1.7500     2.7108     1.2330 H       
  56 H56           -5.4612     5.6138     4.4296 H       
  57 H57           -4.9764     6.4780     0.9515 H       
  58 H58           -6.1225     5.1167     0.9124 H       
  59 H59           -6.8475     8.0542     0.9229 H       
  60 H60           -7.9936     6.6929     0.8838 H       
  61 H61           -8.9342     7.4222     3.0591 H       
  62 H62           -7.7880     8.7835     3.0983 H       
  63 H63          -11.0927     7.3121     0.9181 H       
  64 H64          -11.2095     8.6090    -0.2954 H       
  65 H65           -9.8477     7.4639    -0.3449 H       
  66 H66          -10.1156    10.7407     3.1829 H       
  67 H67          -11.3785    10.6763     1.9302 H       
  68 H68          -11.2617     9.3794     3.1437 H       
  69 H69           -7.8888     9.7906    -0.2780 H       
  70 H70           -9.2506    10.9357    -0.2285 H       
  71 H71           -7.9877    11.0001     1.0242 H       
  72 H72           -1.8377     2.5743     5.2399 H       
  73 H73           -5.0080     5.1841     6.5000 H       
  74 H74           -4.4303     4.6428     8.8290 H       
  75 H75           -0.1246     2.4075     7.8268 H       
  76 H76           -1.2962     1.3583     8.6603 H       
  77 H77           -0.9374     1.0980     6.9364 H       
  78 H78            5.3989     4.2433     3.8149 H       
  79 H79            6.5135     3.0594     3.0907 H       
  80 H80            7.4852     4.8438     1.6693 H       
  81 H81            6.3706     6.0277     2.3935 H       
  82 H82            7.6232     5.2559     3.3954 H       
@<TRIPOS>BOND
   1    1    2 1
   2    1    6 1
   3    1   10 1
   4    2    3 1
   5    2   42 1
   6    2   43 1
   7    3    4 1
   8    3   44 1
   9    3   45 1
  10    4    5 1
  11    4    7 1
  12    4   46 1
  13    5    6 1
  14    5   47 1
  15    5   48 1
  16    6   49 1
  17    6   50 1
  18    7    8 2
  19    7    9 am
  20    9   40 1
  21    9   51 1
  22   10   11 ar
  23   10   15 ar
  24   11   12 ar
  25   11   39 1
  26   12   13 ar
  27   12   52 1
  28   13   14 ar
  29   13   53 1
  30   14   15 ar
  31   14   54 1
  32   15   18 1
  33   16   17 2
  34   16   18 am
  35   16   19 1
  36   18   55 1
  37   19   20 2
  38   19   23 1
  39   20   21 1
  40   21   22 2
  41   21   34 1
  42   22   23 1
  43   22   56 1
  44   23   24 1
  45   24   25 1
  46   24   57 1
  47   24   58 1
  48   25   26 1
  49   26   27 1
  50   26   59 1
  51   26   60 1
  52   27   28 1
  53   27   61 1
  54   27   62 1
  55   28   29 1
  56   28   30 1
  57   28   31 1
  58   29   63 1
  59   29   64 1
  60   29   65 1
  61   30   66 1
  62   30   67 1
  63   30   68 1
  64   31   69 1
  65   31   70 1
  66   31   71 1
  67   32   33 ar
  68   32   37 ar
  69   32   38 1
  70   33   34 ar
  71   33   72 1
  72   34   35 ar
  73   35   36 ar
  74   35   73 1
  75   36   37 ar
  76   36   74 1
  77   38   75 1
  78   38   76 1
  79   38   77 1
  80   40   41 1
  81   40   78 1
  82   40   79 1
  83   41   80 1
  84   41   81 1
  85   41   82 1

#	End of record

