#	Name: ASD03091013
#	Creating user name:	WinNT
#	Creation time:	15. 06. 2019 20:29

#	Modifying user name:	WinNT
#	Modification time:	15. 06. 2019 20:29

#	Program:	/corina/corina34_cracker 3.40 0067  02.08.2006

@<TRIPOS>MOLECULE
ASD03091013
  57   59    0    0    0
SMALL
NO_CHARGES


@<TRIPOS>ATOM
   1 N1             0.4084     0.7638    -0.8005 N.2     
   2 C2            -0.2080    -0.3845    -1.0944 C.2     
   3 O3             0.3216    -1.1858    -1.8447 O.2     
   4 N4            -1.4155    -0.6568    -0.5611 N.am    
   5 C5            -2.0914    -1.9160    -0.8833 C.3     
   6 C6            -3.3538    -2.0502    -0.0294 C.3     
   7 C7            -3.0444    -1.6280     1.4083 C.3     
   8 C8            -3.0454    -0.1009     1.5028 C.3     
   9 C9            -4.1092    -2.1978     2.3476 C.3     
  10 C10           -1.6691    -2.1630     1.8121 C.3     
  11 C11           -2.4743    -1.9247    -2.3646 C.3     
  12 C12           -1.1520    -3.0881    -0.5924 C.3     
  13 S13            2.5099     0.0400    -2.4012 S.3     
  14 C14            1.6009     1.0328    -1.3272 C.2     
  15 N15            2.3510     2.1460    -1.1290 N.pl3   
  16 C16            3.5477     2.2058    -1.7759 C.2     
  17 C17            3.8681     1.1697    -2.5396 C.2     
  18 O18            0.6476     6.2662     2.1546 O.3     
  19 C19           -0.7133     6.2334     2.5981 C.3     
  20 C20           -1.0263     4.8113     3.0830 C.3     
  21 O21           -0.8254     3.9105     1.9885 O.3     
  22 C22            0.3187     4.0683     1.2682 C.ar    
  23 C23            1.0536     5.2459     1.3490 C.ar    
  24 C24            0.7508     3.0397     0.4460 C.ar    
  25 C25            1.9140     3.1866    -0.2970 C.ar    
  26 C26            2.6441     4.3643    -0.2164 C.ar    
  27 C27            2.2146     5.3895     0.6042 C.ar    
  28 F28           -0.1700     4.4727     4.1362 F       
  29 F29           -2.3556     4.7416     3.5136 F       
  30 F30           -0.8888     7.1396     3.6494 F       
  31 F31           -1.5631     6.5684     1.5385 F       
  32 C32            5.1235     0.9909    -3.3538 C.3     
  33 H33           -1.8369    -0.0191     0.0361 H       
  34 H34           -4.1369    -1.4099    -0.4355 H       
  35 H35           -3.6906    -3.0868    -0.0391 H       
  36 H36           -3.5956     0.3150     0.6588 H       
  37 H37           -3.5224     0.2052     2.4339 H       
  38 H38           -2.0188     0.2650     1.4831 H       
  39 H39           -4.1085    -3.2857     2.2803 H       
  40 H40           -3.8888    -1.8970     3.3718 H       
  41 H41           -5.0890    -1.8166     2.0599 H       
  42 H42           -0.9348    -1.8854     1.0559 H       
  43 H43           -1.3807    -1.7359     2.7726 H       
  44 H44           -1.7119    -3.2490     1.8956 H       
  45 H45           -1.5868    -1.7421    -2.9704 H       
  46 H46           -2.8984    -2.8946    -2.6245 H       
  47 H47           -3.2106    -1.1437    -2.5541 H       
  48 H48           -1.1201    -3.2703     0.4818 H       
  49 H49           -1.5160    -3.9805    -1.1016 H       
  50 H50           -0.1506    -2.8486    -0.9502 H       
  51 H51            4.2046     3.0567    -1.6724 H       
  52 H52            0.1821     2.1237     0.3831 H       
  53 H53            3.5486     4.4792    -0.7952 H       
  54 H54            2.7842     6.3050     0.6655 H       
  55 H55            5.0872     0.0324    -3.8717 H       
  56 H56            5.2003     1.7960    -4.0846 H       
  57 H57            5.9909     1.0149    -2.6942 H       
@<TRIPOS>BOND
   1    1    2 1
   2    1   14 2
   3    2    3 2
   4    2    4 am
   5    4    5 1
   6    4   33 1
   7    5    6 1
   8    5   11 1
   9    5   12 1
  10    6    7 1
  11    6   34 1
  12    6   35 1
  13    7    8 1
  14    7    9 1
  15    7   10 1
  16    8   36 1
  17    8   37 1
  18    8   38 1
  19    9   39 1
  20    9   40 1
  21    9   41 1
  22   10   42 1
  23   10   43 1
  24   10   44 1
  25   11   45 1
  26   11   46 1
  27   11   47 1
  28   12   48 1
  29   12   49 1
  30   12   50 1
  31   13   14 1
  32   13   17 1
  33   14   15 1
  34   15   16 1
  35   15   25 1
  36   16   17 2
  37   16   51 1
  38   17   32 1
  39   18   19 1
  40   18   23 1
  41   19   20 1
  42   19   30 1
  43   19   31 1
  44   20   21 1
  45   20   28 1
  46   20   29 1
  47   21   22 1
  48   22   23 ar
  49   22   24 ar
  50   23   27 ar
  51   24   25 ar
  52   24   52 1
  53   25   26 ar
  54   26   27 ar
  55   26   53 1
  56   27   54 1
  57   32   55 1
  58   32   56 1
  59   32   57 1

#	End of record

