#	Name: ASD01883826
#	Creating user name:	WinNT
#	Creation time:	15. 06. 2019 19:47

#	Modifying user name:	WinNT
#	Modification time:	15. 06. 2019 19:47

#	Program:	/corina/corina34_cracker 3.40 0067  02.08.2006

@<TRIPOS>MOLECULE
ASD01883826
  56   57    0    0    0
SMALL
NO_CHARGES


@<TRIPOS>ATOM
   1 N1            -0.0162     1.3416     0.0094 N.am    
   2 C2             0.0021    -0.0041     0.0020 C.2     
   3 C3            -1.2160    -0.7277     0.0102 C.2     
   4 C4            -2.4270    -0.0107     0.0261 C.2     
   5 C5            -2.3786     1.3988     0.0332 C.2     
   6 C6            -1.1847     2.0332     0.0299 C.2     
   7 O7             1.0657    -0.5999    -0.0121 O.2     
   8 C8            -1.2149    -2.1597     0.0021 C.1     
   9 N9            -1.2141    -3.2956    -0.0044 N.1     
  10 C10            1.2515     2.0759     0.0013 C.3     
  11 C11            1.6790     2.3393    -1.4440 C.3     
  12 C12            3.0029     3.1062    -1.4525 C.3     
  13 C13            3.4935     3.2607    -2.8935 C.3     
  14 C14           -3.7183    -0.7178     0.0347 C.2     
  15 C15            2.7948     4.4898    -0.8334 C.3     
  16 C16           -3.9681    -1.5288     1.0401 C.2     
  17 C17           -5.2370    -2.3255     1.1644 C.3     
  18 N18           -6.2049    -1.8498     0.1657 N.am    
  19 C19           -5.7011    -1.5867    -1.1933 C.3     
  20 C20           -4.6648    -0.4614    -1.1003 C.3     
  21 C21           -7.5019    -1.6623     0.4806 C.2     
  22 O22           -8.2814    -1.2682    -0.3641 O.2     
  23 O23           -7.9338    -1.9117     1.7312 O.3     
  24 C24           -9.3432    -1.6876     1.9989 C.3     
  25 C25          -10.1841    -2.5834     1.0872 C.3     
  26 C26           -9.6441    -2.0221     3.4612 C.3     
  27 C27           -9.6864    -0.2210     1.7302 C.3     
  28 H28           -3.2945     1.9709     0.0454 H       
  29 H29           -1.1599     3.1129     0.0354 H       
  30 H30            1.1247     3.0254     0.5214 H       
  31 H31            2.0168     1.4852     0.5046 H       
  32 H32            1.8057     1.3898    -1.9642 H       
  33 H33            0.9137     2.9300    -1.9474 H       
  34 H34            3.7448     2.5567    -0.8731 H       
  35 H35            2.7516     3.8102    -3.4729 H       
  36 H36            4.4367     3.8071    -2.8995 H       
  37 H37            3.6417     2.2750    -3.3345 H       
  38 H38            2.4453     4.3797     0.1931 H       
  39 H39            3.7380     5.0361    -0.8395 H       
  40 H40            2.0529     5.0392    -1.4129 H       
  41 H41           -3.2231    -1.6276     1.8158 H       
  42 H42           -5.0234    -3.3803     0.9911 H       
  43 H43           -5.6518    -2.1964     2.1641 H       
  44 H44           -5.2371    -2.4874    -1.5951 H       
  45 H45           -6.5236    -1.2761    -1.8376 H       
  46 H46           -5.1767     0.4880    -0.9434 H       
  47 H47           -4.1000    -0.4136    -2.0314 H       
  48 H48           -9.9396    -3.6283     1.2786 H       
  49 H49          -11.2422    -2.4152     1.2881 H       
  50 H50           -9.9697    -2.3451     0.0454 H       
  51 H51           -9.0450    -1.3839     4.1107 H       
  52 H52          -10.7022    -1.8539     3.6621 H       
  53 H53           -9.3996    -3.0670     3.6526 H       
  54 H54           -9.4720     0.0174     0.6884 H       
  55 H55          -10.7445    -0.0527     1.9311 H       
  56 H56           -9.0873     0.4173     2.3796 H       
@<TRIPOS>BOND
   1    1    2 am
   2    1   10 1
   3    1    6 1
   4    2    3 1
   5    2    7 2
   6    3    4 2
   7    3    8 1
   8    4    5 1
   9    4   14 1
  10    5    6 2
  11    5   28 1
  12    6   29 1
  13    8    9 3
  14   10   11 1
  15   10   30 1
  16   10   31 1
  17   11   12 1
  18   11   32 1
  19   11   33 1
  20   12   13 1
  21   12   15 1
  22   12   34 1
  23   13   35 1
  24   13   36 1
  25   13   37 1
  26   14   16 2
  27   14   20 1
  28   15   38 1
  29   15   39 1
  30   15   40 1
  31   16   17 1
  32   16   41 1
  33   17   18 1
  34   17   42 1
  35   17   43 1
  36   18   19 1
  37   18   21 am
  38   19   20 1
  39   19   44 1
  40   19   45 1
  41   20   46 1
  42   20   47 1
  43   21   22 2
  44   21   23 1
  45   23   24 1
  46   24   25 1
  47   24   26 1
  48   24   27 1
  49   25   48 1
  50   25   49 1
  51   25   50 1
  52   26   51 1
  53   26   52 1
  54   26   53 1
  55   27   54 1
  56   27   55 1
  57   27   56 1

#	End of record

