#	Name: ASD01913453
#	Creating user name:	WinNT
#	Creation time:	15. 06. 2019 20:01

#	Modifying user name:	WinNT
#	Modification time:	15. 06. 2019 20:01

#	Program:	/corina/corina34_cracker 3.40 0067  02.08.2006

@<TRIPOS>MOLECULE
ASD01913453
  40   42    0    0    0
SMALL
NO_CHARGES


@<TRIPOS>ATOM
   1 C1             0.8868     0.0716    -1.0321 C.ar    
   2 C2             0.0203    -0.0121     0.0531 C.ar    
   3 C3             0.3615     0.6237     1.2383 C.ar    
   4 N4             1.4892     1.2987     1.3390 N.ar    
   5 C5             2.3322     1.3973     0.3296 C.ar    
   6 C6             2.0617     0.7909    -0.8826 C.ar    
   7 C7            -1.0734    -2.0573    -0.1462 C.ar    
   8 C8            -2.2382    -2.8151    -0.1615 C.ar    
   9 N9            -2.1713    -4.1303    -0.2640 N.ar    
  10 C10           -0.9980    -4.7297    -0.3522 C.ar    
  11 C11            0.1717    -3.9766    -0.3374 C.ar    
  12 N12            0.1068    -2.6553    -0.2345 N.ar    
  13 N13            1.4095    -4.6090    -0.4300 N.am    
  14 C14            2.5362    -3.8749    -0.5202 C.2     
  15 O15           -1.1439    -0.7061    -0.0464 O.3     
  16 C16            3.8362    -4.5410    -0.7455 C.ar    
  17 C17            3.9006    -5.9302    -0.8654 C.ar    
  18 C18            5.1174    -6.5457    -1.0756 C.ar    
  19 C19            6.2720    -5.7892    -1.1677 C.ar    
  20 C20            6.2152    -4.4115    -1.0497 C.ar    
  21 C21            5.0045    -3.7831    -0.8451 C.ar    
  22 O22            2.4832    -2.6650    -0.4162 O.2     
  23 C23            7.4782    -3.5956    -1.1508 C.3     
  24 C24            3.6075     2.1818     0.5001 C.3     
  25 F25            3.7209     2.6043     1.8290 F       
  26 F26            4.7004     1.3720     0.1734 F       
  27 F27            3.5850     3.2976    -0.3436 F       
  28 H28            0.6517    -0.4159    -1.9667 H       
  29 H29           -0.3039     0.5653     2.0870 H       
  30 H30            2.7578     0.8770    -1.7039 H       
  31 H31           -3.1994    -2.3280    -0.0892 H       
  32 H32           -0.9464    -5.8052    -0.4356 H       
  33 H33            1.4605    -5.5776    -0.4295 H       
  34 H34            3.0000    -6.5219    -0.7934 H       
  35 H35            5.1687    -7.6205    -1.1682 H       
  36 H36            7.2220    -6.2760    -1.3319 H       
  37 H37            4.9615    -2.7079    -0.7532 H       
  38 H38            7.6488    -3.3175    -2.1908 H       
  39 H39            7.3781    -2.6947    -0.5455 H       
  40 H40            8.3211    -4.1845    -0.7892 H       
@<TRIPOS>BOND
   1    1    2 ar
   2    1    6 ar
   3    1   28 1
   4    2    3 ar
   5    2   15 1
   6    3    4 ar
   7    3   29 1
   8    4    5 ar
   9    5    6 ar
  10    5   24 1
  11    6   30 1
  12    7    8 ar
  13    7   12 ar
  14    7   15 1
  15    8    9 ar
  16    8   31 1
  17    9   10 ar
  18   10   11 ar
  19   10   32 1
  20   11   12 ar
  21   11   13 1
  22   13   14 am
  23   13   33 1
  24   14   16 1
  25   14   22 2
  26   16   17 ar
  27   16   21 ar
  28   17   18 ar
  29   17   34 1
  30   18   19 ar
  31   18   35 1
  32   19   20 ar
  33   19   36 1
  34   20   21 ar
  35   20   23 1
  36   21   37 1
  37   23   38 1
  38   23   39 1
  39   23   40 1
  40   24   25 1
  41   24   26 1
  42   24   27 1

#	End of record

