#	Name: ASD04660002
#	Creating user name:	WinNT
#	Creation time:	15. 06. 2019 20:52

#	Modifying user name:	WinNT
#	Modification time:	15. 06. 2019 20:52

#	Program:	/corina/corina34_cracker 3.40 0067  02.08.2006

@<TRIPOS>MOLECULE
ASD04660002
  58   62    0    0    0
SMALL
NO_CHARGES


@<TRIPOS>ATOM
   1 C1            -0.0167     1.3794     0.0096 C.ar    
   2 C2             0.0021    -0.0041     0.0020 C.ar    
   3 C3             1.2060    -0.6858    -0.0127 C.ar    
   4 C4             2.3967     0.0109    -0.0203 C.ar    
   5 C5             2.3849     1.4069    -0.0131 C.ar    
   6 C6             1.1666     2.0884     0.0021 C.ar    
   7 C7             6.1459     8.2891    -0.0292 C.ar    
   8 C8             6.9319     7.1356    -0.0396 C.ar    
   9 C9             8.3237     7.2445    -0.0540 C.ar    
  10 C10            8.9190     8.4935    -0.0576 C.ar    
  11 C11            8.1295     9.6399    -0.0501 C.ar    
  12 C12            6.7453     9.5309    -0.0346 C.ar    
  13 C13            4.8336     4.2132    -0.0209 C.2     
  14 N14            6.0395     3.6987    -0.0347 N.2     
  15 N15            6.9097     4.6463    -0.0431 N.2     
  16 C16            6.2929     5.8037    -0.0349 C.2     
  17 O17            4.9658     5.5532    -0.0207 O.3     
  18 O18           10.2774     8.5836    -0.0635 O.3     
  19 C19           10.8372     9.8454    -0.4430 C.3     
  20 C20           10.0808    10.9515     0.3048 C.3     
  21 O21            8.6989    10.8761    -0.0614 O.3     
  22 S22           -1.5140    -0.9018     0.0116 S.o2    
  23 O23           -1.2175    -2.1845     0.5464 O.2     
  24 O24           -2.4908    -0.0338     0.5701 O.2     
  25 C25            3.6566     2.1599    -0.0207 C.2     
  26 N26            3.6418     3.5075    -0.0138 N.am    
  27 O27            4.7159     1.5637    -0.0332 O.2     
  28 C28           -4.2732    -0.4984    -1.9944 C.3     
  29 C29           -4.6451    -1.6841    -2.7816 C.3     
  30 C30           -3.9002    -2.9569    -2.3907 C.3     
  31 C31           -2.5782    -3.0055    -3.1163 C.3     
  32 C32           -1.4776    -2.3608    -2.2543 C.3     
  33 N33           -1.9509    -1.1431    -1.5674 N.am    
  34 C34           -2.7801    -0.1523    -2.2162 C.3     
  35 H35           -0.9599     1.9054     0.0169 H       
  36 H36            1.2137    -1.7657    -0.0178 H       
  37 H37            3.3357    -0.5224    -0.0314 H       
  38 H38            1.1506     3.1683     0.0074 H       
  39 H39            5.0689     8.2091    -0.0213 H       
  40 H40            8.9352     6.3543    -0.0620 H       
  41 H41            6.1357    10.4224    -0.0271 H       
  42 H42           11.8929     9.8751    -0.1734 H       
  43 H43           10.7278     9.9876    -1.5182 H       
  44 H44           10.1846    10.8055     1.3800 H       
  45 H45           10.4826    11.9254     0.0251 H       
  46 H46            2.7965     3.9832    -0.0038 H       
  47 H47           -4.8891     0.3466    -2.3022 H       
  48 H48           -4.4437    -0.6995    -0.9368 H       
  49 H49           -5.7143    -1.8580    -2.6612 H       
  50 H50           -4.4480    -1.4769    -3.8334 H       
  51 H51           -3.7248    -2.9598    -1.3149 H       
  52 H52           -4.4975    -3.8265    -2.6645 H       
  53 H53           -2.3158    -4.0436    -3.3204 H       
  54 H54           -2.6630    -2.4641    -4.0586 H       
  55 H55           -1.1451    -3.0818    -1.5076 H       
  56 H56           -0.6339    -2.1012    -2.8937 H       
  57 H57           -2.5648    -0.1421    -3.2847 H       
  58 H58           -2.5689     0.8304    -1.7944 H       
@<TRIPOS>BOND
   1    1    2 ar
   2    1    6 ar
   3    1   35 1
   4    2    3 ar
   5    2   22 1
   6    3    4 ar
   7    3   36 1
   8    4    5 ar
   9    4   37 1
  10    5    6 ar
  11    5   25 1
  12    6   38 1
  13    7    8 ar
  14    7   12 ar
  15    7   39 1
  16    8    9 ar
  17    8   16 1
  18    9   10 ar
  19    9   40 1
  20   10   11 ar
  21   10   18 1
  22   11   12 ar
  23   11   21 1
  24   12   41 1
  25   13   14 2
  26   13   17 1
  27   13   26 1
  28   14   15 1
  29   15   16 2
  30   16   17 1
  31   18   19 1
  32   19   20 1
  33   19   42 1
  34   19   43 1
  35   20   21 1
  36   20   44 1
  37   20   45 1
  38   22   23 2
  39   22   24 2
  40   22   33 am
  41   25   26 am
  42   25   27 2
  43   26   46 1
  44   28   29 1
  45   28   34 1
  46   28   47 1
  47   28   48 1
  48   29   30 1
  49   29   49 1
  50   29   50 1
  51   30   31 1
  52   30   51 1
  53   30   52 1
  54   31   32 1
  55   31   53 1
  56   31   54 1
  57   32   33 1
  58   32   55 1
  59   32   56 1
  60   33   34 1
  61   34   57 1
  62   34   58 1

#	End of record

