#	Name: ASD07930266
#	Creating user name:	WinNT
#	Creation time:	15. 06. 2019 21:12

#	Modifying user name:	WinNT
#	Modification time:	15. 06. 2019 21:12

#	Program:	/corina/corina34_cracker 3.40 0067  02.08.2006

@<TRIPOS>MOLECULE
ASD07930266
  57   61    0    0    0
SMALL
NO_CHARGES


@<TRIPOS>ATOM
   1 C1            -0.0165     1.3638     0.0095 C.2     
   2 C2             0.0021    -0.0041     0.0020 C.2     
   3 C3             1.2948    -0.6930    -0.0137 C.2     
   4 N4             2.4269     0.0320    -0.0184 N.am    
   5 C5             2.3819     1.4078    -0.0126 C.2     
   6 C6             1.1929     2.0698     0.0018 C.2     
   7 C7             3.7400    -0.6270    -0.0278 C.3     
   8 C8             4.6599     0.1585    -0.9744 C.3     
   9 N9             4.7714     1.5377    -0.4785 N.am    
  10 C10            3.6569     2.1587    -0.0238 C.2     
  11 C11            6.0638     2.2277    -0.4763 C.3     
  12 O12            3.7031     3.3090     0.3671 O.2     
  13 O13            1.3435    -1.9113    -0.0219 O.2     
  14 N14           -1.1914    -0.7315     0.0096 N.pl3   
  15 C15           -1.6504    -1.5415    -0.9805 C.2     
  16 N16           -2.7956    -2.0446    -0.6082 N.2     
  17 C17           -3.1078    -1.5843     0.6125 C.2     
  18 C18           -2.1178    -0.7676     1.0201 C.2     
  19 C19           -4.3493    -1.9268     1.3951 C.3     
  20 C20            6.2498     2.9665    -1.8031 C.3     
  21 O21            5.2694     4.0003    -1.9141 O.3     
  22 C22            5.2960     4.7567    -3.0418 C.ar    
  23 C23            6.2305     4.5159    -4.0095 C.ar    
  24 C24            6.2716     5.2823    -5.1710 C.ar    
  25 C25            5.3827     6.2929    -5.3771 C.ar    
  26 C26            4.4056     6.5720    -4.4060 C.ar    
  27 C27            4.3561     5.7914    -3.2243 C.ar    
  28 C28            3.4726     7.6082    -4.5883 C.ar    
  29 C29            2.5299     7.8506    -3.6136 C.ar    
  30 C30            2.4932     7.0789    -2.4491 C.ar    
  31 C31            3.3808     6.0668    -2.2522 C.ar    
  32 F32            3.5009     8.3602    -5.7103 F       
  33 O33            1.6261     8.8516    -3.7860 O.3     
  34 C34            0.6740     9.0534    -2.7396 C.3     
  35 H35           -0.9567     1.8952     0.0169 H       
  36 H36            1.1819     3.1497     0.0071 H       
  37 H37            4.1596    -0.6262     0.9782 H       
  38 H38            3.6350    -1.6521    -0.3830 H       
  39 H39            5.6465    -0.3045    -0.9940 H       
  40 H40            4.2345     0.1634    -1.9779 H       
  41 H41            6.0920     2.9435     0.3453 H       
  42 H42            6.8645     1.4989    -0.3509 H       
  43 H43           -1.1514    -1.7356    -1.9184 H       
  44 H44           -2.0667    -0.2372     1.9595 H       
  45 H45           -4.1600    -2.8068     2.0099 H       
  46 H46           -4.6181    -1.0869     2.0358 H       
  47 H47           -5.1676    -2.1343     0.7057 H       
  48 H48            7.2467     3.4059    -1.8376 H       
  49 H49            6.1331     2.2650    -2.6291 H       
  50 H50            6.9474     3.7201    -3.8711 H       
  51 H51            7.0206     5.0721    -5.9201 H       
  52 H52            5.4284     6.8782    -6.2836 H       
  53 H53            1.7464     7.2858    -1.6968 H       
  54 H54            3.3390     5.4796    -1.3467 H       
  55 H55            0.0846     8.1465    -2.6048 H       
  56 H56            1.1972     9.2878    -1.8126 H       
  57 H57            0.0141     9.8798    -3.0033 H       
@<TRIPOS>BOND
   1    1    2 2
   2    1    6 1
   3    1   35 1
   4    2    3 1
   5    2   14 1
   6    3    4 am
   7    3   13 2
   8    4    5 1
   9    4    7 1
  10    5    6 2
  11    5   10 1
  12    6   36 1
  13    7    8 1
  14    7   37 1
  15    7   38 1
  16    8    9 1
  17    8   39 1
  18    8   40 1
  19    9   10 am
  20    9   11 1
  21   10   12 2
  22   11   20 1
  23   11   41 1
  24   11   42 1
  25   14   15 1
  26   14   18 1
  27   15   16 2
  28   15   43 1
  29   16   17 1
  30   17   18 2
  31   17   19 1
  32   18   44 1
  33   19   45 1
  34   19   46 1
  35   19   47 1
  36   20   21 1
  37   20   48 1
  38   20   49 1
  39   21   22 1
  40   22   23 ar
  41   22   27 ar
  42   23   24 ar
  43   23   50 1
  44   24   25 ar
  45   24   51 1
  46   25   26 ar
  47   25   52 1
  48   26   27 ar
  49   26   28 ar
  50   27   31 ar
  51   28   29 ar
  52   28   32 1
  53   29   30 ar
  54   29   33 1
  55   30   31 ar
  56   30   53 1
  57   31   54 1
  58   33   34 1
  59   34   55 1
  60   34   56 1
  61   34   57 1

#	End of record

