#	Name: ASD05060080
#	Creating user name:	WinNT
#	Creation time:	15. 06. 2019 20:56

#	Modifying user name:	WinNT
#	Modification time:	15. 06. 2019 20:56

#	Program:	/corina/corina34_cracker 3.40 0067  02.08.2006

@<TRIPOS>MOLECULE
ASD05060080
  22   23    0    0    0
SMALL
NO_CHARGES


@<TRIPOS>ATOM
   1 C1            -0.0170     1.4049     0.0098 C.2     
   2 C2             0.0021    -0.0041     0.0020 C.2     
   3 C3             5.5689    -0.4265    -0.0542 C.ar    
   4 C4             5.5362     1.9788    -0.0419 C.ar    
   5 C5             4.1885    -0.4449    -0.0407 C.ar    
   6 C6             4.1559     1.9596    -0.0284 C.ar    
   7 C7             1.2640     1.8271    -0.0002 C.2     
   8 C8             1.2941    -0.3912    -0.0124 C.2     
   9 C9             6.2471     0.7856    -0.0546 C.ar    
  10 C10            3.4784     0.7479    -0.0276 C.ar    
  11 N11            7.6453     0.8046    -0.0678 N.pl3   
  12 N12            2.0749     0.7288    -0.0138 N.pl3   
  13 H13           -0.8963     2.0320     0.0175 H       
  14 H14           -0.8599    -0.6548     0.0071 H       
  15 H15            6.1213    -1.3545    -0.0599 H       
  16 H16            6.0632     2.9215    -0.0430 H       
  17 H17            3.6610    -1.3873    -0.0407 H       
  18 H18            3.6031     2.8873    -0.0182 H       
  19 H19            1.5916     2.8562     0.0017 H       
  20 H20            1.6495    -1.4110    -0.0207 H       
  21 H21            8.1416    -0.0287    -0.0767 H       
  22 H22            8.1188     1.6512    -0.0681 H       
@<TRIPOS>BOND
   1    1    2 1
   2    1    7 2
   3    1   13 1
   4    2    8 2
   5    2   14 1
   6    3    5 ar
   7    3    9 ar
   8    3   15 1
   9    4    6 ar
  10    4    9 ar
  11    4   16 1
  12    5   10 ar
  13    5   17 1
  14    6   10 ar
  15    6   18 1
  16    7   12 1
  17    7   19 1
  18    8   12 1
  19    8   20 1
  20    9   11 1
  21   10   12 1
  22   11   21 1
  23   11   22 1

#	End of record

