#	Name: ASD03240919
#	Creating user name:	WinNT
#	Creation time:	15. 06. 2019 20:35

#	Modifying user name:	WinNT
#	Modification time:	15. 06. 2019 20:35

#	Program:	/corina/corina34_cracker 3.40 0067  02.08.2006

@<TRIPOS>MOLECULE
ASD03240919
  62   68    0    0    0
SMALL
NO_CHARGES


@<TRIPOS>ATOM
   1 C1            -0.0188     1.5336     0.0105 C.3     
   2 C2             0.0021    -0.0041     0.0020 C.3     
   3 C3             1.3815     0.0967    -0.6702 C.3     
   4 C4             1.5179     1.4762    -0.0045 C.3     
   5 O5            -0.5818     2.1049    -1.1721 O.3     
   6 C6             2.3746    -0.9181    -0.1653 C.ar    
   7 C7             3.3681    -1.3872    -1.0061 C.ar    
   8 C8             4.2801    -2.3167    -0.5498 C.ar    
   9 C9             4.1992    -2.7830     0.7623 C.ar    
  10 C10            3.1955    -2.3058     1.6054 C.ar    
  11 C11            2.2926    -1.3725     1.1389 C.ar    
  12 N12            6.9676    -6.5942    -0.0356 N.pl3   
  13 C13            7.8696    -7.5268     0.4027 C.2     
  14 N14            8.3267    -7.5362     1.6682 N.2     
  15 C15            7.9366    -6.6559     2.5535 C.2     
  16 C16            6.9746    -5.6295     2.1579 C.ar    
  17 C17            6.5198    -4.6612     3.0594 C.ar    
  18 C18            5.6029    -3.7221     2.5989 C.ar    
  19 C19            5.1745    -3.7809     1.2582 C.ar    
  20 N20            5.6277    -4.7126     0.4333 N.ar    
  21 C21            6.4989    -5.6246     0.8294 C.ar    
  22 C22            8.1502    -8.3549    -0.6732 C.2     
  23 C23            7.4002    -7.9022    -1.7644 C.2     
  24 N24            6.6917    -6.8570    -1.3831 N.2     
  25 C25            5.0840    -2.6715     3.5073 C.ar    
  26 C26            4.5780    -3.0168     4.7594 C.ar    
  27 C27            4.0968    -2.0346     5.6010 C.ar    
  28 C28            4.1159    -0.7096     5.2040 C.ar    
  29 C29            4.6168    -0.3611     3.9626 C.ar    
  30 C30            5.1056    -1.3341     3.1148 C.ar    
  31 C31            8.0642    -9.6315    -3.4206 C.2     
  32 C32            7.3977    -8.5017    -3.1224 C.2     
  33 C33            6.7042    -7.9408    -4.1930 C.2     
  34 C34            6.8089    -8.6076    -5.3398 C.2     
  35 S35            7.8234   -10.0262    -5.1172 S.3     
  36 C36           -0.5973     2.1316     1.2944 C.3     
  37 N37            1.3186     0.1546    -2.1367 N.3     
  38 H38            0.0329    -0.4458     0.9980 H       
  39 H39           -0.7629    -0.4476    -0.6353 H       
  40 H40            1.9766     2.2276    -0.6471 H       
  41 H41            1.9632     1.4391     0.9897 H       
  42 H42           -0.5977     3.0718    -1.1727 H       
  43 H43            3.4298    -1.0254    -2.0218 H       
  44 H44            5.0548    -2.6827    -1.2073 H       
  45 H45            3.1277    -2.6631     2.6223 H       
  46 H46            1.5177    -0.9991     1.7919 H       
  47 H47            8.3198    -6.6874     3.5627 H       
  48 H48            6.8687    -4.6442     4.0814 H       
  49 H49            8.8257    -9.1975    -0.6697 H       
  50 H50            4.5623    -4.0510     5.0702 H       
  51 H51            3.7041    -2.3010     6.5712 H       
  52 H52            3.7379     0.0556     5.8657 H       
  53 H53            4.6289     0.6750     3.6578 H       
  54 H54            5.5003    -1.0604     2.1475 H       
  55 H55            8.6596   -10.2054    -2.7259 H       
  56 H56            6.1254    -7.0338    -4.0991 H       
  57 H57            6.3400    -8.3203    -6.2692 H       
  58 H58            0.0010     1.8098     2.1469 H       
  59 H59           -0.5800     3.2195     1.2285 H       
  60 H60           -1.6249     1.7917     1.4227 H       
  61 H61            2.2430     0.2199    -2.5360 H       
  62 H62            0.8193    -0.6393    -2.5089 H       
@<TRIPOS>BOND
   1    1    2 1
   2    1    4 1
   3    1    5 1
   4    1   36 1
   5    2    3 1
   6    2   38 1
   7    2   39 1
   8    3    4 1
   9    3    6 1
  10    3   37 1
  11    4   40 1
  12    4   41 1
  13    5   42 1
  14    6    7 ar
  15    6   11 ar
  16    7    8 ar
  17    7   43 1
  18    8    9 ar
  19    8   44 1
  20    9   10 ar
  21    9   19 1
  22   10   11 ar
  23   10   45 1
  24   11   46 1
  25   12   13 1
  26   12   21 1
  27   12   24 1
  28   13   14 1
  29   13   22 2
  30   14   15 2
  31   15   16 1
  32   15   47 1
  33   16   17 ar
  34   16   21 ar
  35   17   18 ar
  36   17   48 1
  37   18   19 ar
  38   18   25 1
  39   19   20 ar
  40   20   21 ar
  41   22   23 1
  42   22   49 1
  43   23   24 2
  44   23   32 1
  45   25   26 ar
  46   25   30 ar
  47   26   27 ar
  48   26   50 1
  49   27   28 ar
  50   27   51 1
  51   28   29 ar
  52   28   52 1
  53   29   30 ar
  54   29   53 1
  55   30   54 1
  56   31   32 2
  57   31   35 1
  58   31   55 1
  59   32   33 1
  60   33   34 2
  61   33   56 1
  62   34   35 1
  63   34   57 1
  64   36   58 1
  65   36   59 1
  66   36   60 1
  67   37   61 1
  68   37   62 1

#	End of record

