#	Name: ASD01883560
#	Creating user name:	WinNT
#	Creation time:	15. 06. 2019 19:46

#	Modifying user name:	WinNT
#	Modification time:	15. 06. 2019 19:46

#	Program:	/corina/corina34_cracker 3.40 0067  02.08.2006

@<TRIPOS>MOLECULE
ASD01883560
  51   54    0    0    0
SMALL
NO_CHARGES


@<TRIPOS>ATOM
   1 C1            -0.0171     1.4071     0.0098 C.2     
   2 C2            -0.3902     0.6525     1.1425 C.2     
   3 C3            -1.5463    -0.0432     1.1332 C.2     
   4 N4            -2.3613    -0.0289     0.0448 N.am    
   5 C5            -2.0411     0.6777    -1.0549 C.2     
   6 C6            -0.8565     1.4206    -1.0928 C.2     
   7 O7            -2.7894     0.6746    -2.0204 O.2     
   8 N8             1.1653     2.1265     0.0024 N.pl3   
   9 C9             1.1477     3.5923    -0.0999 C.3     
  10 C10            1.9466     4.1762     1.0711 C.3     
  11 C11            3.3330     3.5472     1.1021 C.3     
  12 C12            3.2506     2.0357     1.2664 C.3     
  13 C13            2.4594     1.4382     0.1027 C.3     
  14 C14           -3.6092    -0.7961     0.0697 C.3     
  15 C15           -4.7375     0.0828     0.6131 C.3     
  16 Cl16          -0.4360     2.3347    -2.5075 Cl      
  17 C17           -6.0407    -0.7184     0.6390 C.3     
  18 C18           -7.1690     0.1605     1.1825 C.3     
  19 C19            4.1155     3.9077    -0.1752 C.3     
  20 O20            4.8449     5.0825     0.2233 O.3     
  21 C21            5.0496     5.0509     1.5694 C.ar    
  22 C22            4.1794     4.1624     2.1912 C.ar    
  23 C23            5.9631     5.7549     2.3497 C.ar    
  24 C24            5.9959     5.5737     3.7165 C.ar    
  25 C25            5.1215     4.6918     4.3248 C.ar    
  26 C26            4.2121     3.9868     3.5573 C.ar    
  27 H27            0.2476     0.6317     2.0138 H       
  28 H28           -1.8279    -0.6196     2.0020 H       
  29 H29            1.6028     3.8986    -1.0418 H       
  30 H30            0.1189     3.9496    -0.0549 H       
  31 H31            2.0396     5.2550     0.9456 H       
  32 H32            1.4294     3.9623     2.0065 H       
  33 H33            4.2565     1.6160     1.2771 H       
  34 H34            2.7479     1.7990     2.2041 H       
  35 H35            2.2965     0.3749     0.2791 H       
  36 H36            3.0138     1.5763    -0.8255 H       
  37 H37           -3.8562    -1.1208    -0.9411 H       
  38 H38           -3.4867    -1.6683     0.7118 H       
  39 H39           -4.4904     0.4076     1.6239 H       
  40 H40           -4.8600     0.9551    -0.0290 H       
  41 H41           -6.2877    -1.0431    -0.3717 H       
  42 H42           -5.9182    -1.5906     1.2811 H       
  43 H43           -8.0974    -0.4103     1.2010 H       
  44 H44           -6.9219     0.4852     2.1932 H       
  45 H45           -7.2915     1.0328     0.5404 H       
  46 H46            4.7980     3.1036    -0.4504 H       
  47 H47            3.4339     4.1353    -0.9948 H       
  48 H48            6.6494     6.4456     1.8824 H       
  49 H49            6.7080     6.1230     4.3146 H       
  50 H50            5.1484     4.5543     5.3957 H       
  51 H51            3.5277     3.2973     4.0293 H       
@<TRIPOS>BOND
   1    1    2 1
   2    1    8 1
   3    1    6 2
   4    2    3 2
   5    2   27 1
   6    3    4 1
   7    3   28 1
   8    4    5 am
   9    4   14 1
  10    5    6 1
  11    5    7 2
  12    6   16 1
  13    8    9 1
  14    8   13 1
  15    9   10 1
  16    9   29 1
  17    9   30 1
  18   10   11 1
  19   10   31 1
  20   10   32 1
  21   11   12 1
  22   11   19 1
  23   11   22 1
  24   12   13 1
  25   12   33 1
  26   12   34 1
  27   13   35 1
  28   13   36 1
  29   14   15 1
  30   14   37 1
  31   14   38 1
  32   15   17 1
  33   15   39 1
  34   15   40 1
  35   17   18 1
  36   17   41 1
  37   17   42 1
  38   18   43 1
  39   18   44 1
  40   18   45 1
  41   19   20 1
  42   19   46 1
  43   19   47 1
  44   20   21 1
  45   21   22 ar
  46   21   23 ar
  47   22   26 ar
  48   23   24 ar
  49   23   48 1
  50   24   25 ar
  51   24   49 1
  52   25   26 ar
  53   25   50 1
  54   26   51 1

#	End of record

