#	Name: ASD00844905
#	Creating user name:	WinNT
#	Creation time:	15. 06. 2019 18:51

#	Modifying user name:	WinNT
#	Modification time:	15. 06. 2019 18:51

#	Program:	/corina/corina34_cracker 3.40 0067  02.08.2006

@<TRIPOS>MOLECULE
ASD00844905
  97  102    0    0    0
SMALL
NO_CHARGES


@<TRIPOS>ATOM
   1 F1             5.6839    -1.9722    -2.1693 F       
   2 C2             0.6287     1.3406    -0.7073 C.ar    
   3 C3             0.9209    -0.0007    -0.9066 C.ar    
   4 C4             0.8376    -0.8915     0.1540 C.ar    
   5 C5             0.4642    -0.4409     1.4051 C.ar    
   6 C6             0.1729     0.8967     1.6011 C.ar    
   7 C7             0.2556     1.7863     0.5461 C.ar    
   8 C8             1.1539    -2.3494    -0.0591 C.3     
   9 C9             0.8688    -3.1430     1.1979 C.2     
  10 C10            0.3502    -2.9042    -1.2369 C.3     
  11 C11           -1.1160    -2.6357    -1.0153 C.2     
  12 N12           -2.0244    -3.0778    -1.9075 N.am    
  13 O13           -1.4787    -2.0220    -0.0342 O.2     
  14 C14           -3.4432    -2.7215    -1.7703 C.3     
  15 C15           -4.2776    -4.0062    -1.7830 C.3     
  16 C16           -3.9504    -4.8098    -3.0436 C.3     
  17 C17           -2.4694    -5.1958    -3.0345 C.3     
  18 C18           -1.6137    -3.9200    -3.0392 C.3     
  19 C19           -4.8072    -6.0770    -3.0770 C.3     
  20 C20           -6.2892    -5.6924    -3.0879 C.3     
  21 C21           -7.1397    -6.9611    -3.1828 C.3     
  22 N22           -6.7962    -7.6917    -4.4094 N.3     
  23 C23           -5.3893    -8.1126    -4.4004 C.3     
  24 C24           -4.4866    -6.8783    -4.3419 C.3     
  25 C25           -7.6886    -8.8421    -4.6045 C.3     
  26 O26           -0.2073    -3.2640     1.7444 O.2     
  27 N27            2.0305    -3.6885     1.5949 N.am    
  28 C28            2.6360    -2.5418    -0.2882 C.ar    
  29 C29            3.0884    -3.3560     0.7451 C.ar    
  30 C30            3.4975    -2.0798    -1.2587 C.ar    
  31 C31            4.8375    -2.4235    -1.2180 C.ar    
  32 C32            5.3101    -3.2412    -0.1865 C.ar    
  33 C33            4.4326    -3.7059     0.7928 C.ar    
  34 C34            1.9202    -6.3101     2.4254 C.ar    
  35 C35            0.6743    -6.6965     1.9524 C.ar    
  36 C36            2.9511    -7.2281     2.4903 C.ar    
  37 C37            2.7443    -8.5324     2.0844 C.ar    
  38 C38            1.4998    -8.9238     1.6105 C.ar    
  39 C39            0.4641    -8.0050     1.5448 C.ar    
  40 O40            1.2969   -10.2070     1.2117 O.3     
  41 O41           -0.3392    -5.7934     1.8892 O.3     
  42 C42            2.4086   -11.0997     1.3074 C.3     
  43 C43           -1.5947    -6.2609     1.3919 C.3     
  44 C44           -2.6044    -5.1113     1.3949 C.3     
  45 C45            6.6950    -3.6020    -0.1363 C.1     
  46 N46            7.7937    -3.8882    -0.0964 N.1     
  47 O47            1.2877    -0.4416    -2.1386 O.3     
  48 C48            1.2542     0.5095    -3.2046 C.3     
  49 C49            1.7707    -0.1444    -4.4879 C.3     
  50 F50            3.0526    -0.6589    -4.2659 F       
  51 F51            0.9100    -1.1821    -4.8615 F       
  52 S52            2.1901    -4.6457     2.9368 S.o2    
  53 O53            3.5534    -4.5625     3.3291 O.2     
  54 O54            1.1114    -4.3109     3.7991 O.2     
  55 H55            0.6971     2.0367    -1.5302 H       
  56 H56            0.3992    -1.1338     2.2309 H       
  57 H57           -0.1196     1.2470     2.5799 H       
  58 H58            0.0276     2.8304     0.7017 H       
  59 H59            0.6733    -2.4189    -2.1579 H       
  60 H60            0.5151    -3.9788    -1.3152 H       
  61 H61           -3.5982    -2.1944    -0.8290 H       
  62 H62           -3.7418    -2.0836    -2.6022 H       
  63 H63           -4.0423    -4.6015    -0.9008 H       
  64 H64           -5.3374    -3.7517    -1.7787 H       
  65 H65           -4.1625    -4.2049    -3.9252 H       
  66 H66           -2.2512    -5.7799    -2.1405 H       
  67 H67           -2.2424    -5.7880    -3.9210 H       
  68 H68           -1.7644    -3.3823    -3.9753 H       
  69 H69           -0.5618    -4.1851    -2.9330 H       
  70 H70           -4.5947    -6.6837    -2.1968 H       
  71 H71           -6.5334    -5.1585    -2.1696 H       
  72 H72           -6.4929    -5.0527    -3.9466 H       
  73 H73           -6.9458    -7.5940    -2.3168 H       
  74 H74           -8.1952    -6.6900    -3.2052 H       
  75 H75           -5.2036    -8.7401    -3.5287 H       
  76 H76           -5.1735    -8.6777    -5.3071 H       
  77 H77           -4.6619    -6.2572    -5.2203 H       
  78 H78           -3.4428    -7.1915    -4.3194 H       
  79 H79           -8.7186    -8.4939    -4.6820 H       
  80 H80           -7.4121    -9.3653    -5.5199 H       
  81 H81           -7.5973    -9.5207    -3.7564 H       
  82 H82            3.1266    -1.4486    -2.0528 H       
  83 H83            4.7980    -4.3373     1.5891 H       
  84 H84            3.9201    -6.9254     2.8588 H       
  85 H85            3.5517    -9.2478     2.1354 H       
  86 H86           -0.5050    -8.3078     1.1767 H       
  87 H87            3.2274   -10.7276     0.6916 H       
  88 H88            2.7348   -11.1637     2.3455 H       
  89 H89            2.1117   -12.0886     0.9582 H       
  90 H90           -1.4676    -6.6303     0.3743 H       
  91 H91           -1.9600    -7.0670     2.0281 H       
  92 H92           -3.5620    -5.4679     1.0156 H       
  93 H93           -2.7314    -4.7419     2.4125 H       
  94 H94           -2.2390    -4.3052     0.7586 H       
  95 H95            0.2297     0.8489    -3.3567 H       
  96 H96            1.8854     1.3613    -2.9514 H       
  97 H97            1.8104     0.5992    -5.2839 H       
@<TRIPOS>BOND
   1    1   31 1
   2    2    3 ar
   3    2    7 ar
   4    2   55 1
   5    3    4 ar
   6    3   47 1
   7    4    5 ar
   8    4    8 1
   9    5    6 ar
  10    5   56 1
  11    6    7 ar
  12    6   57 1
  13    7   58 1
  14    8    9 1
  15    8   10 1
  16    8   28 1
  17    9   26 2
  18    9   27 am
  19   10   11 1
  20   10   59 1
  21   10   60 1
  22   11   12 am
  23   11   13 2
  24   12   14 1
  25   12   18 1
  26   14   15 1
  27   14   61 1
  28   14   62 1
  29   15   16 1
  30   15   63 1
  31   15   64 1
  32   16   17 1
  33   16   19 1
  34   16   65 1
  35   17   18 1
  36   17   66 1
  37   17   67 1
  38   18   68 1
  39   18   69 1
  40   19   20 1
  41   19   24 1
  42   19   70 1
  43   20   21 1
  44   20   71 1
  45   20   72 1
  46   21   22 1
  47   21   73 1
  48   21   74 1
  49   22   23 1
  50   22   25 1
  51   23   24 1
  52   23   75 1
  53   23   76 1
  54   24   77 1
  55   24   78 1
  56   25   79 1
  57   25   80 1
  58   25   81 1
  59   27   52 am
  60   27   29 1
  61   28   29 ar
  62   28   30 ar
  63   29   33 ar
  64   30   31 ar
  65   30   82 1
  66   31   32 ar
  67   32   33 ar
  68   32   45 1
  69   33   83 1
  70   34   35 ar
  71   34   36 ar
  72   34   52 1
  73   35   41 1
  74   35   39 ar
  75   36   37 ar
  76   36   84 1
  77   37   38 ar
  78   37   85 1
  79   38   39 ar
  80   38   40 1
  81   39   86 1
  82   40   42 1
  83   41   43 1
  84   42   87 1
  85   42   88 1
  86   42   89 1
  87   43   44 1
  88   43   90 1
  89   43   91 1
  90   44   92 1
  91   44   93 1
  92   44   94 1
  93   45   46 3
  94   47   48 1
  95   48   49 1
  96   48   95 1
  97   48   96 1
  98   49   50 1
  99   49   51 1
 100   49   97 1
 101   52   53 2
 102   52   54 2

#	End of record

