#	Name: ASD01911588
#	Creating user name:	WinNT
#	Creation time:	15. 06. 2019 19:58

#	Modifying user name:	WinNT
#	Modification time:	15. 06. 2019 19:58

#	Program:	/corina/corina34_cracker 3.40 0067  02.08.2006

@<TRIPOS>MOLECULE
ASD01911588
  41   43    0    0    0
SMALL
NO_CHARGES


@<TRIPOS>ATOM
   1 N1             0.0337     1.1489    -0.6953 N.am    
   2 C2             0.0021    -0.0041     0.0020 C.2     
   3 C3            -1.2508    -0.7543     0.1205 C.2     
   4 C4            -1.3862    -2.1135     0.0310 C.2     
   5 S5            -2.8471    -0.0659     0.4110 S.3     
   6 C6            -3.5481    -1.6813     0.3771 C.2     
   7 N7            -2.6014    -2.5626     0.1691 N.2     
   8 C8            -4.9363    -1.9846     0.5542 C.1     
   9 C9            -6.0745    -2.2333     0.6993 C.1     
  10 C10           -7.4627    -2.5366     0.8764 C.ar    
  11 C11           -7.9039    -3.8625     0.8289 C.ar    
  12 C12           -9.2423    -4.1466     1.0008 C.ar    
  13 C13          -10.1481    -3.1233     1.2194 C.ar    
  14 C14           -9.7191    -1.8084     1.2677 C.ar    
  15 C15           -8.3831    -1.5088     1.1034 C.ar    
  16 O16            1.0143    -0.4220     0.5333 O.2     
  17 C17           -1.1464     1.6043    -1.4427 C.3     
  18 C18            1.2470     1.9772    -0.7176 C.3     
  19 C19            0.8787     3.4026    -0.2942 C.3     
  20 C20           -0.2517     3.9196    -1.1870 C.3     
  21 C21           -1.4825     3.0348    -1.0096 C.3     
  22 C22          -11.6091    -3.4425     1.4052 C.3     
  23 O23           -0.5759     5.2610    -0.8158 O.3     
  24 H24           -0.5446    -2.7679    -0.1422 H       
  25 H25           -7.1983    -4.6621     0.6577 H       
  26 H26           -9.5846    -5.1703     0.9644 H       
  27 H27          -10.4319    -1.0152     1.4383 H       
  28 H28           -8.0499    -0.4822     1.1413 H       
  29 H29           -0.9314     1.5870    -2.5111 H       
  30 H30           -1.9906     0.9494    -1.2271 H       
  31 H31            1.9815     1.5682    -0.0237 H       
  32 H32            1.6616     1.9909    -1.7256 H       
  33 H33            0.5495     3.4000     0.7448 H       
  34 H34            1.7497     4.0497    -0.3987 H       
  35 H35            0.0695     3.8987    -2.2283 H       
  36 H36           -2.2961     3.4153    -1.6270 H       
  37 H37           -1.7864     3.0399     0.0372 H       
  38 H38          -11.8137    -3.6052     2.4634 H       
  39 H39          -12.2119    -2.6099     1.0425 H       
  40 H40          -11.8585    -4.3432     0.8443 H       
  41 H41           -1.2864     5.6536    -1.3413 H       
@<TRIPOS>BOND
   1    1    2 am
   2    1   18 1
   3    1   17 1
   4    2    3 1
   5    2   16 2
   6    3    4 2
   7    3    5 1
   8    4    7 1
   9    4   24 1
  10    5    6 1
  11    6    7 2
  12    6    8 1
  13    8    9 3
  14    9   10 1
  15   10   11 ar
  16   10   15 ar
  17   11   12 ar
  18   11   25 1
  19   12   13 ar
  20   12   26 1
  21   13   14 ar
  22   13   22 1
  23   14   15 ar
  24   14   27 1
  25   15   28 1
  26   17   21 1
  27   17   29 1
  28   17   30 1
  29   18   19 1
  30   18   31 1
  31   18   32 1
  32   19   20 1
  33   19   33 1
  34   19   34 1
  35   20   21 1
  36   20   23 1
  37   20   35 1
  38   21   36 1
  39   21   37 1
  40   22   38 1
  41   22   39 1
  42   22   40 1
  43   23   41 1

#	End of record

