#	Name: ASD01913068
#	Creating user name:	WinNT
#	Creation time:	15. 06. 2019 20:00

#	Modifying user name:	WinNT
#	Modification time:	15. 06. 2019 20:00

#	Program:	/corina/corina34_cracker 3.40 0067  02.08.2006

@<TRIPOS>MOLECULE
ASD01913068
  35   37    0    0    0
SMALL
NO_CHARGES


@<TRIPOS>ATOM
   1 C1            -0.0179     1.4691     0.0101 C.ar    
   2 C2             0.0021    -0.0041     0.0020 C.2     
   3 C3            -1.1516    -0.6913     0.0093 C.2     
   4 C4            -1.1316    -2.1649     0.0012 C.ar    
   5 C5            -1.2283     2.1631     0.0312 C.ar    
   6 C6            -2.3302    -2.8833     0.0088 C.ar    
   7 C7             1.1800     2.1999     0.0026 C.ar    
   8 C8             1.1096     3.5827     0.0105 C.ar    
   9 C9            -0.1373     4.2068     0.0217 C.ar    
  10 N10           -1.2498     3.4786     0.0362 N.ar    
  11 C11           -2.3036    -4.2623     0.0012 C.ar    
  12 C12           -1.0941    -4.9343    -0.0134 C.ar    
  13 C13            0.0968    -4.2296    -0.0206 C.ar    
  14 C14            0.0859    -2.8504    -0.0198 C.ar    
  15 C15            0.9646     6.2576     0.4812 C.3     
  16 N16           -0.2581     5.5928     0.0172 N.3     
  17 C17           -1.4219     6.0223     0.8040 C.3     
  18 O18            2.2661     4.2991     0.0133 O.3     
  19 C19            2.1579     5.6920    -0.2998 C.3     
  20 H20            0.9446    -0.5313    -0.0098 H       
  21 H21           -2.0941    -0.1640     0.0212 H       
  22 H22           -2.1582     1.6141     0.0433 H       
  23 H23           -3.2749    -2.3602     0.0210 H       
  24 H24            2.1348     1.6954    -0.0087 H       
  25 H25           -3.2291    -4.8189     0.0071 H       
  26 H26           -1.0794    -6.0142    -0.0190 H       
  27 H27            1.0371    -4.7608    -0.0313 H       
  28 H28            1.0161    -2.3017    -0.0258 H       
  29 H29            0.8871     7.3304     0.3044 H       
  30 H30            1.1018     6.0690     1.5459 H       
  31 H31           -1.5505     7.1000     0.7037 H       
  32 H32           -2.3147     5.5144     0.4391 H       
  33 H33           -1.2641     5.7712     1.8528 H       
  34 H34            1.9919     5.8180    -1.3697 H       
  35 H35            3.0709     6.2088    -0.0039 H       
@<TRIPOS>BOND
   1    1    2 1
   2    1    7 ar
   3    1    5 ar
   4    2    3 2
   5    2   20 1
   6    3    4 1
   7    3   21 1
   8    4    6 ar
   9    4   14 ar
  10    5   10 ar
  11    5   22 1
  12    6   11 ar
  13    6   23 1
  14    7    8 ar
  15    7   24 1
  16    8    9 ar
  17    8   18 1
  18    9   10 ar
  19    9   16 1
  20   11   12 ar
  21   11   25 1
  22   12   13 ar
  23   12   26 1
  24   13   14 ar
  25   13   27 1
  26   14   28 1
  27   15   16 1
  28   15   19 1
  29   15   29 1
  30   15   30 1
  31   16   17 1
  32   17   31 1
  33   17   32 1
  34   17   33 1
  35   18   19 1
  36   19   34 1
  37   19   35 1

#	End of record

