#	Name: ASD01560019
#	Creating user name:	WinNT
#	Creation time:	15. 06. 2019 19:22

#	Modifying user name:	WinNT
#	Modification time:	15. 06. 2019 19:22

#	Program:	/corina/corina34_cracker 3.40 0067  02.08.2006

@<TRIPOS>MOLECULE
ASD01560019
  72   77    0    0    0
SMALL
NO_CHARGES


@<TRIPOS>ATOM
   1 C1            -1.1526     2.8296    -4.8788 C.3     
   2 C2            -0.5027     1.4493    -4.6159 C.3     
   3 C3             0.6514     1.7548    -3.6414 C.3     
   4 O4             0.6671     3.1765    -3.4299 O.3     
   5 C5            -0.6783     3.6507    -3.6528 C.3     
   6 C6             1.9804     1.3050    -4.2516 C.3     
   7 O7             3.0281     1.4846    -3.2966 O.3     
   8 C8             4.3313     1.1843    -3.8001 C.3     
   9 C9             4.6773     2.1485    -4.9053 C.ar    
  10 C10            5.3408     1.3111    -2.6884 C.ar    
  11 C11            4.3500    -0.2235    -4.3375 C.ar    
  12 C12            3.8936    -0.4799    -5.6172 C.ar    
  13 C13            3.9097    -1.7695    -6.1121 C.ar    
  14 C14            4.3844    -2.8079    -5.3240 C.ar    
  15 C15            4.8419    -2.5480    -4.0403 C.ar    
  16 C16            4.8289    -1.2558    -3.5520 C.ar    
  17 C17            4.0502     3.3791    -4.9691 C.ar    
  18 C18            4.3657     4.2648    -5.9813 C.ar    
  19 C19            5.3126     3.9185    -6.9342 C.ar    
  20 C20            5.9404     2.6832    -6.8680 C.ar    
  21 C21            5.6255     1.8033    -5.8506 C.ar    
  22 C22            4.9216     1.6045    -1.4042 C.ar    
  23 C23            5.8477     1.7209    -0.3845 C.ar    
  24 C24            7.1928     1.5434    -0.6489 C.ar    
  25 C25            7.6119     1.2491    -1.9329 C.ar    
  26 C26            6.6855     1.1284    -2.9518 C.ar    
  27 O27           -0.6641     3.4000    -6.0945 O.3     
  28 N28           -0.6761     5.0830    -3.9607 N.pl3   
  29 C29           -1.7208     5.9490    -3.7884 C.2     
  30 C30           -1.2623     7.1996    -4.2137 C.2     
  31 N31            0.0191     7.0417    -4.6191 N.2     
  32 C32            0.3691     5.7972    -4.4657 C.2     
  33 N33           -2.9751     5.8240    -3.3323 N.2     
  34 N34           -3.3984     8.0887    -3.6731 N.am    
  35 C35           -2.1502     8.3021    -4.1463 C.2     
  36 O36           -1.7979     9.4127    -4.5048 O.2     
  37 O37            0.0030     0.8948    -5.8319 O.3     
  38 C38           -3.7796     6.8482    -3.2770 C.2     
  39 O39            5.6243     4.7879    -7.9312 O.3     
  40 O40            4.4009    -4.0775    -5.8084 O.3     
  41 C41            4.9032    -5.0962    -4.9413 C.3     
  42 C42            6.6082     4.3645    -8.8771 C.3     
  43 H43           -2.2396     2.7504    -4.8976 H       
  44 H44           -1.2217     0.7701    -4.1579 H       
  45 H45            0.4831     1.2411    -2.6949 H       
  46 H46           -1.3065     3.4443    -2.7862 H       
  47 H47            1.9160     0.2522    -4.5266 H       
  48 H48            2.1923     1.9002    -5.1398 H       
  49 H49            3.5238     0.3287    -6.2302 H       
  50 H50            3.5528    -1.9693    -7.1117 H       
  51 H51            5.2119    -3.3546    -3.4248 H       
  52 H52            5.1849    -1.0529    -2.5528 H       
  53 H53            3.3128     3.6480    -4.2272 H       
  54 H54            3.8753     5.2257    -6.0309 H       
  55 H55            6.6779     2.4114    -7.6087 H       
  56 H56            6.1140     0.8415    -5.7986 H       
  57 H57            3.8707     1.7431    -1.1977 H       
  58 H58            5.5202     1.9508     0.6186 H       
  59 H59            7.9164     1.6350     0.1476 H       
  60 H60            8.6629     1.1108    -2.1395 H       
  61 H61            7.0129     0.8985    -3.9549 H       
  62 H62           -0.8586     2.8735    -6.8820 H       
  63 H63            1.3394     5.3903    -4.7091 H       
  64 H64           -4.0253     8.8267    -3.6168 H       
  65 H65           -0.6743     0.7370    -6.5038 H       
  66 H66           -4.7827     6.7047    -2.9033 H       
  67 H67            4.8609    -6.0595    -5.4497 H       
  68 H68            5.9360    -4.8707    -4.6758 H       
  69 H69            4.2959    -5.1357    -4.0371 H       
  70 H70            7.5464     4.1632    -8.3600 H       
  71 H71            6.2663     3.4575    -9.3757 H       
  72 H72            6.7624     5.1498    -9.6171 H       
@<TRIPOS>BOND
   1    1   27 1
   2    1    2 1
   3    1    5 1
   4    1   43 1
   5    2   37 1
   6    2    3 1
   7    2   44 1
   8    3    4 1
   9    3    6 1
  10    3   45 1
  11    4    5 1
  12    5   28 1
  13    5   46 1
  14    6    7 1
  15    6   47 1
  16    6   48 1
  17    7    8 1
  18    8    9 1
  19    8   10 1
  20    8   11 1
  21    9   17 ar
  22    9   21 ar
  23   10   22 ar
  24   10   26 ar
  25   11   12 ar
  26   11   16 ar
  27   12   13 ar
  28   12   49 1
  29   13   14 ar
  30   13   50 1
  31   14   15 ar
  32   14   40 1
  33   15   16 ar
  34   15   51 1
  35   16   52 1
  36   17   18 ar
  37   17   53 1
  38   18   19 ar
  39   18   54 1
  40   19   20 ar
  41   19   39 1
  42   20   21 ar
  43   20   55 1
  44   21   56 1
  45   22   23 ar
  46   22   57 1
  47   23   24 ar
  48   23   58 1
  49   24   25 ar
  50   24   59 1
  51   25   26 ar
  52   25   60 1
  53   26   61 1
  54   27   62 1
  55   28   29 1
  56   28   32 1
  57   29   30 2
  58   29   33 1
  59   30   31 1
  60   30   35 1
  61   31   32 2
  62   32   63 1
  63   33   38 2
  64   34   35 am
  65   34   38 1
  66   34   64 1
  67   35   36 2
  68   37   65 1
  69   38   66 1
  70   39   42 1
  71   40   41 1
  72   41   67 1
  73   41   68 1
  74   41   69 1
  75   42   70 1
  76   42   71 1
  77   42   72 1

#	End of record

