#	Name: ASD03320238
#	Creating user name:	WinNT
#	Creation time:	15. 06. 2019 20:36

#	Modifying user name:	WinNT
#	Modification time:	15. 06. 2019 20:36

#	Program:	/corina/corina34_cracker 3.40 0067  02.08.2006

@<TRIPOS>MOLECULE
ASD03320238
  50   52    0    0    0
SMALL
NO_CHARGES


@<TRIPOS>ATOM
   1 C1            -0.0167     1.3791     0.0096 C.ar    
   2 C2             0.0021    -0.0041     0.0020 C.ar    
   3 C3             1.2066    -0.6877    -0.0127 C.ar    
   4 C4             2.4000     0.0058    -0.0203 C.ar    
   5 C5             2.3938     1.4024    -0.0132 C.ar    
   6 C6             1.1729     2.0902     0.0021 C.ar    
   7 Cl7           -1.5324     2.2254     0.0214 Cl      
   8 Cl8            1.2154    -2.4237    -0.0209 Cl      
   9 O9             1.1554     3.4486     0.0091 O.3     
  10 C10            3.6645     2.1490    -0.0208 C.2     
  11 N11            3.6547     3.4469    -0.0142 N.2     
  12 N12            4.8627     4.1565    -0.0214 N.am    
  13 C13            4.8525     5.5042    -0.0145 C.2     
  14 C14            6.1519     6.2676    -0.0223 C.3     
  15 C15            5.8610     7.7696    -0.0121 C.3     
  16 C16            7.1514     8.5277    -0.1434 C.2     
  17 N17            7.4196     9.6261     0.5718 N.am    
  18 C18            6.4912    10.1672     1.5613 C.3     
  19 C19            5.0921     9.5924     1.3316 C.3     
  20 N20            5.1903     8.1270     1.2441 N.4     
  21 O21            7.9839     8.1275    -0.9293 O.2     
  22 C22            8.6951    10.3131     0.3543 C.3     
  23 C23            8.5289    11.3508    -0.7258 C.ar    
  24 C24            8.1557    12.6399    -0.3943 C.ar    
  25 C25            8.0033    13.5917    -1.3851 C.ar    
  26 C26            8.2244    13.2546    -2.7074 C.ar    
  27 C27            8.5985    11.9657    -3.0388 C.ar    
  28 C28            8.7552    11.0150    -2.0476 C.ar    
  29 O29            3.7974     6.1028    -0.0021 O.2     
  30 H30           -0.9275    -0.5539     0.0079 H       
  31 H31            3.3373    -0.5307    -0.0314 H       
  32 H32            1.1586     3.8374     0.8944 H       
  33 H33            4.6038     1.6161    -0.0319 H       
  34 H34            5.7063     3.6779    -0.0314 H       
  35 H35            6.7334     6.0041     0.8612 H       
  36 H36            6.7174     6.0131    -0.9187 H       
  37 H37            5.2106     8.0154    -0.8516 H       
  38 H38            6.8323     9.9007     2.5617 H       
  39 H39            6.4562    11.2528     1.4694 H       
  40 H40            4.4436     9.8660     2.1639 H       
  41 H41            4.6829     9.9876     0.4018 H       
  42 H42            4.2651     7.7247     1.2595 H       
  43 H43            5.7258     7.7771     2.0244 H       
  44 H44            9.0089    10.7979     1.2787 H       
  45 H45            9.4505     9.5889     0.0493 H       
  46 H46            7.9829    12.9033     0.6387 H       
  47 H47            7.7110    14.5987    -1.1262 H       
  48 H48            8.1046    13.9981    -3.4815 H       
  49 H49            8.7710    11.7023    -4.0718 H       
  50 H50            9.0511    10.0090    -2.3061 H       
@<TRIPOS>BOND
   1    1    2 ar
   2    1    6 ar
   3    1    7 1
   4    2    3 ar
   5    2   30 1
   6    3    4 ar
   7    3    8 1
   8    4    5 ar
   9    4   31 1
  10    5    6 ar
  11    5   10 1
  12    6    9 1
  13    9   32 1
  14   10   11 2
  15   10   33 1
  16   11   12 1
  17   12   13 am
  18   12   34 1
  19   13   14 1
  20   13   29 2
  21   14   15 1
  22   14   35 1
  23   14   36 1
  24   15   16 1
  25   15   20 1
  26   15   37 1
  27   16   17 am
  28   16   21 2
  29   17   18 1
  30   17   22 1
  31   18   19 1
  32   18   38 1
  33   18   39 1
  34   19   20 1
  35   19   40 1
  36   19   41 1
  37   20   42 1
  38   20   43 1
  39   22   23 1
  40   22   44 1
  41   22   45 1
  42   23   24 ar
  43   23   28 ar
  44   24   25 ar
  45   24   46 1
  46   25   26 ar
  47   25   47 1
  48   26   27 ar
  49   26   48 1
  50   27   28 ar
  51   27   49 1
  52   28   50 1

#	End of record

