#	Name: ASD01900132
#	Creating user name:	WinNT
#	Creation time:	15. 06. 2019 19:51

#	Modifying user name:	WinNT
#	Modification time:	15. 06. 2019 19:51

#	Program:	/corina/corina34_cracker 3.40 0067  02.08.2006

@<TRIPOS>MOLECULE
ASD01900132
  47   51    0    0    0
SMALL
NO_CHARGES


@<TRIPOS>ATOM
   1 N1            -0.0189     1.3106     0.0360 N.ar    
   2 C2             0.0863     0.0004     0.0743 C.ar    
   3 C3            -0.7594    -0.8038    -0.6733 C.ar    
   4 C4            -1.7281    -0.2149    -1.4706 C.ar    
   5 C5            -1.8163     1.1684    -1.4911 C.ar    
   6 C6            -0.9328     1.9142    -0.7143 C.ar    
   7 C7            -1.0143     3.3932    -0.7247 C.2     
   8 N8            -0.1622     4.1203     0.0248 N.am    
   9 O9            -1.8495     3.9510    -1.4091 O.2     
  10 C10           -0.1739     5.5171    -0.0589 C.ar    
  11 C11           -1.3734     6.1914    -0.2469 C.ar    
  12 C12           -1.3846     7.5704    -0.3290 C.ar    
  13 C13           -0.1957     8.2820    -0.2234 C.ar    
  14 C14            1.0031     7.6070    -0.0355 C.ar    
  15 C15            1.0136     6.2296     0.0518 C.ar    
  16 Cl16          -2.8835     8.4140    -0.5645 Cl      
  17 N17           -0.2066     9.6818    -0.3071 N.am    
  18 C18           -0.0739    10.3394    -1.4658 C.2     
  19 C19           -0.1301    11.8284    -1.2024 C.3     
  20 C20           -0.3188    11.9182     0.3255 C.3     
  21 C21           -0.3563    10.4705     0.7642 C.2     
  22 S22            0.1142     9.6591    -2.9006 S.2     
  23 S23           -0.5415     9.9632     2.2692 S.2     
  24 C24            1.2132    12.4609    -1.5861 C.3     
  25 C25            1.1955    13.9337    -1.1553 C.3     
  26 C26            1.0093    14.0219     0.3609 C.3     
  27 C27            0.9011    12.6082     0.9481 C.3     
  28 C28            2.1419    11.8354     0.5267 C.2     
  29 C29            2.3044    11.7589    -0.7919 C.2     
  30 H30            0.8423    -0.4553     0.6967 H       
  31 H31           -0.6642    -1.8789    -0.6353 H       
  32 H32           -2.3987    -0.8199    -2.0627 H       
  33 H33           -2.5590     1.6608    -2.1012 H       
  34 H34            0.4591     3.6755     0.6221 H       
  35 H35           -2.2971     5.6379    -0.3292 H       
  36 H36            1.9271     8.1602     0.0462 H       
  37 H37            1.9462     5.7050     0.1980 H       
  38 H38           -0.9621    12.2927    -1.7317 H       
  39 H39           -1.2470    12.4298     0.5802 H       
  40 H40            1.3873    12.3750    -2.6587 H       
  41 H41            2.1384    14.4047    -1.4333 H       
  42 H42            0.3728    14.4476    -1.6526 H       
  43 H43            1.8641    14.5341     0.8025 H       
  44 H44            0.0986    14.5781     0.5831 H       
  45 H45            0.8095    12.6475     2.0336 H       
  46 H46            2.8277    11.3904     1.2324 H       
  47 H47            3.1338    11.2453    -1.2553 H       
@<TRIPOS>BOND
   1    1    2 ar
   2    1    6 ar
   3    2    3 ar
   4    2   30 1
   5    3    4 ar
   6    3   31 1
   7    4    5 ar
   8    4   32 1
   9    5    6 ar
  10    5   33 1
  11    6    7 1
  12    7    8 am
  13    7    9 2
  14    8   10 1
  15    8   34 1
  16   10   11 ar
  17   10   15 ar
  18   11   12 ar
  19   11   35 1
  20   12   13 ar
  21   12   16 1
  22   13   14 ar
  23   13   17 1
  24   14   15 ar
  25   14   36 1
  26   15   37 1
  27   17   18 am
  28   17   21 am
  29   18   22 2
  30   18   19 1
  31   19   20 1
  32   19   24 1
  33   19   38 1
  34   20   21 1
  35   20   27 1
  36   20   39 1
  37   21   23 2
  38   24   25 1
  39   24   29 1
  40   24   40 1
  41   25   26 1
  42   25   41 1
  43   25   42 1
  44   26   27 1
  45   26   43 1
  46   26   44 1
  47   27   28 1
  48   27   45 1
  49   28   29 2
  50   28   46 1
  51   29   47 1

#	End of record

