#	Name: ASD00170360
#	Creating user name:	WinNT
#	Creation time:	15. 06. 2019 18:32

#	Modifying user name:	WinNT
#	Modification time:	15. 06. 2019 18:32

#	Program:	/corina/corina34_cracker 3.40 0067  02.08.2006

@<TRIPOS>MOLECULE
ASD00170360
  34   36    0    0    0
SMALL
NO_CHARGES


@<TRIPOS>ATOM
   1 C1            -0.9461     1.4969     0.9608 C.2     
   2 C2            -1.1728     0.2136     1.2202 C.2     
   3 C3            -1.3432    -0.5803     0.0050 C.2     
   4 C4            -1.2343     0.1589    -1.1412 C.2     
   5 S5            -0.9370     1.7935    -0.7774 S.3     
   6 C6            -1.6034    -2.0203     0.0134 C.2     
   7 C7            -2.9880    -2.5200     0.1377 C.ar    
   8 O8            -0.6784    -2.8069    -0.0822 O.2     
   9 C9            -3.2510    -3.8880     0.0318 C.ar    
  10 C10           -4.5432    -4.3499     0.1483 C.ar    
  11 C11           -5.5849    -3.4571     0.3709 C.ar    
  12 C12           -5.3273    -2.0954     0.4764 C.ar    
  13 C13           -4.0371    -1.6263     0.3673 C.ar    
  14 N14           -1.3546    -0.3514    -2.4183 N.pl3   
  15 C15           -0.7759     2.2803     2.2571 C.3     
  16 C16           -1.3706     1.3705     3.3508 C.3     
  17 C17           -1.1829    -0.0271     2.7272 C.3     
  18 O18           -6.8571    -3.9162     0.4851 O.3     
  19 C19           -7.8795    -2.9443     0.7133 C.3     
  20 H20           -2.4422    -4.5824    -0.1415 H       
  21 H21           -4.7474    -5.4073     0.0661 H       
  22 H22           -6.1395    -1.4047     0.6487 H       
  23 H23           -3.8377    -0.5681     0.4497 H       
  24 H24           -1.4545    -1.3070    -2.5514 H       
  25 H25           -1.3392     0.2457    -3.1826 H       
  26 H26            0.2803     2.4665     2.4517 H       
  27 H27           -1.3245     3.2208     2.2066 H       
  28 H28           -0.8107     1.4613     4.2816 H       
  29 H29           -2.4266     1.5890     3.5091 H       
  30 H30           -2.0123    -0.6790     3.0015 H       
  31 H31           -0.2361    -0.4614     3.0482 H       
  32 H32           -7.6751    -2.4134     1.6431 H       
  33 H33           -7.8974    -2.2347    -0.1139 H       
  34 H34           -8.8459    -3.4434     0.7847 H       
@<TRIPOS>BOND
   1    1    2 2
   2    1   15 1
   3    1    5 1
   4    2    3 1
   5    2   17 1
   6    3    4 2
   7    3    6 1
   8    4    5 1
   9    4   14 1
  10    6    7 1
  11    6    8 2
  12    7    9 ar
  13    7   13 ar
  14    9   10 ar
  15    9   20 1
  16   10   11 ar
  17   10   21 1
  18   11   12 ar
  19   11   18 1
  20   12   13 ar
  21   12   22 1
  22   13   23 1
  23   14   24 1
  24   14   25 1
  25   15   16 1
  26   15   26 1
  27   15   27 1
  28   16   17 1
  29   16   28 1
  30   16   29 1
  31   17   30 1
  32   17   31 1
  33   18   19 1
  34   19   32 1
  35   19   33 1
  36   19   34 1

#	End of record

