#	Name: ASD07150003
#	Creating user name:	WinNT
#	Creation time:	15. 06. 2019 21:09

#	Modifying user name:	WinNT
#	Modification time:	15. 06. 2019 21:09

#	Program:	/corina/corina34_cracker 3.40 0067  02.08.2006

@<TRIPOS>MOLECULE
ASD07150003
  48   50    0    0    0
SMALL
NO_CHARGES


@<TRIPOS>ATOM
   1 C1            -0.0189     1.3173     0.1510 C.ar    
   2 C2            -0.0160    -0.0375     0.0947 C.ar    
   3 C3             1.1728    -0.7778     0.1195 C.ar    
   4 C4             2.3878    -0.1813     0.2008 C.ar    
   5 C5             1.2054     2.0081     0.2367 C.ar    
   6 N6             1.6327     3.2446     0.3080 N.2     
   7 C7             2.4653     1.2237     0.2625 C.ar    
   8 N8             3.3841     2.1541     0.3434 N.2     
   9 O9             2.8461     3.2430     0.3643 O.3     
  10 C10           -1.3199     2.0770     0.1160 C.3     
  11 C11           -2.0403     1.7657    -1.1651 C.2     
  12 C12           -3.0988     0.9376    -1.1906 C.2     
  13 N13           -3.5607     0.3551    -0.0419 N.pl3   
  14 C14           -3.2074     0.8616     1.1791 C.2     
  15 C15           -2.1532     1.6861     1.3034 C.2     
  16 C16           -4.0105     0.4909     2.3992 C.3     
  17 C17           -3.7856     0.6475    -2.5002 C.3     
  18 C18           -1.5954     2.3569    -2.3703 C.2     
  19 O19           -1.9015     3.5047    -2.6341 O.2     
  20 O20           -0.8313     1.6482    -3.2277 O.3     
  21 C21           -0.4177     2.3083    -4.4257 C.3     
  22 C22           -1.8218     2.1973     2.5796 C.2     
  23 O23           -2.4879     1.8891     3.5502 O.2     
  24 O24           -0.7668     3.0269     2.7210 O.3     
  25 C25           -0.4898     3.5053     4.0387 C.3     
  26 C26            0.4700     2.5419     4.7398 C.3     
  27 C27            0.1512     4.8920     3.9536 C.3     
  28 H28           -0.9582    -0.5613     0.0291 H       
  29 H29            1.1202    -1.8555     0.0729 H       
  30 H30            3.2878    -0.7780     0.2185 H       
  31 H31           -1.1124     3.1462     0.1603 H       
  32 H32           -4.1413    -0.4202    -0.0933 H       
  33 H33           -4.8202    -0.1796     2.1113 H       
  34 H34           -3.3646    -0.0086     3.1213 H       
  35 H35           -4.4275     1.3927     2.8475 H       
  36 H36           -3.2647    -0.1615    -3.0123 H       
  37 H37           -4.8180     0.3530    -2.3117 H       
  38 H38           -3.7709     1.5413    -3.1240 H       
  39 H39           -1.2961     2.6094    -4.9965 H       
  40 H40            0.1697     3.1903    -4.1704 H       
  41 H41            0.1889     1.6285    -5.0241 H       
  42 H42           -1.4190     3.5687     4.6050 H       
  43 H43            0.6814     2.9069     5.7449 H       
  44 H44            0.0134     1.5541     4.8004 H       
  45 H45            1.3992     2.4785     4.1734 H       
  46 H46           -0.5326     5.5783     3.4541 H       
  47 H47            0.3625     5.2569     4.9587 H       
  48 H48            1.0804     4.8286     3.3872 H       
@<TRIPOS>BOND
   1    1    2 ar
   2    1    5 ar
   3    1   10 1
   4    2    3 ar
   5    2   28 1
   6    3    4 ar
   7    3   29 1
   8    4    7 ar
   9    4   30 1
  10    5    7 ar
  11    5    6 2
  12    6    9 1
  13    7    8 2
  14    8    9 1
  15   10   11 1
  16   10   15 1
  17   10   31 1
  18   11   12 2
  19   11   18 1
  20   12   13 1
  21   12   17 1
  22   13   14 1
  23   13   32 1
  24   14   15 2
  25   14   16 1
  26   15   22 1
  27   16   33 1
  28   16   34 1
  29   16   35 1
  30   17   36 1
  31   17   37 1
  32   17   38 1
  33   18   19 2
  34   18   20 1
  35   20   21 1
  36   21   39 1
  37   21   40 1
  38   21   41 1
  39   22   23 2
  40   22   24 1
  41   24   25 1
  42   25   26 1
  43   25   27 1
  44   25   42 1
  45   26   43 1
  46   26   44 1
  47   26   45 1
  48   27   46 1
  49   27   47 1
  50   27   48 1

#	End of record

