#	Name: ASD04550047
#	Creating user name:	WinNT
#	Creation time:	15. 06. 2019 20:49

#	Modifying user name:	WinNT
#	Modification time:	15. 06. 2019 20:49

#	Program:	/corina/corina34_cracker 3.40 0067  02.08.2006

@<TRIPOS>MOLECULE
ASD04550047
  36   37    0    0    0
SMALL
NO_CHARGES


@<TRIPOS>ATOM
   1 C1            -0.8772     1.6093     0.1597 C.ar    
   2 C2            -0.5070     0.2772     0.0257 C.ar    
   3 C3             0.8332    -0.0564    -0.1240 C.ar    
   4 C4             1.7927     0.9367    -0.1392 C.ar    
   5 C5             1.4208     2.2619    -0.0051 C.ar    
   6 C6             0.0876     2.5974     0.1436 C.ar    
   7 C7             2.4708     3.3428    -0.0216 C.3     
   8 C8             2.1976     4.3014    -1.1824 C.3     
   9 N9            -1.4800    -0.7247     0.0419 N.am    
  10 S10           -1.4460    -1.9305    -1.0926 S.o2    
  11 C11           -1.6351    -1.1681    -2.6698 C.ar    
  12 O12           -0.1324    -2.4718    -1.0635 O.2     
  13 O13           -2.6137    -2.7125    -0.8823 O.2     
  14 C14           -0.5199    -0.8540    -3.4239 C.ar    
  15 C15           -0.6683    -0.2559    -4.6613 C.ar    
  16 C16           -1.9319     0.0278    -5.1448 C.ar    
  17 C17           -3.0471    -0.2871    -4.3911 C.ar    
  18 C18           -2.8989    -0.8892    -3.1556 C.ar    
  19 C19            2.4291     4.1035     1.2786 C.2     
  20 O20            1.6288     3.7992     2.1311 O.2     
  21 O21            3.2809     5.1192     1.4895 O.3     
  22 H22           -1.9186     1.8724     0.2718 H       
  23 H23            1.1244    -1.0911    -0.2280 H       
  24 H24            2.8349     0.6781    -0.2555 H       
  25 H25           -0.1995     3.6333     0.2481 H       
  26 H26            3.4550     2.8914    -0.1471 H       
  27 H27            2.9571     5.0832    -1.1944 H       
  28 H28            2.2278     3.7511    -2.1228 H       
  29 H29            1.2135     4.7527    -1.0570 H       
  30 H30           -2.1757    -0.7142     0.7178 H       
  31 H31            0.4673    -1.0757    -3.0462 H       
  32 H32            0.2030    -0.0098    -5.2501 H       
  33 H33           -2.0478     0.4958    -6.1112 H       
  34 H34           -4.0343    -0.0652    -4.7687 H       
  35 H35           -3.7702    -1.1352    -2.5668 H       
  36 H36            3.2163     5.5773     2.3387 H       
@<TRIPOS>BOND
   1    1    2 ar
   2    1    6 ar
   3    1   22 1
   4    2    3 ar
   5    2    9 1
   6    3    4 ar
   7    3   23 1
   8    4    5 ar
   9    4   24 1
  10    5    6 ar
  11    5    7 1
  12    6   25 1
  13    7    8 1
  14    7   19 1
  15    7   26 1
  16    8   27 1
  17    8   28 1
  18    8   29 1
  19    9   10 am
  20    9   30 1
  21   10   11 1
  22   10   12 2
  23   10   13 2
  24   11   14 ar
  25   11   18 ar
  26   14   15 ar
  27   14   31 1
  28   15   16 ar
  29   15   32 1
  30   16   17 ar
  31   16   33 1
  32   17   18 ar
  33   17   34 1
  34   18   35 1
  35   19   20 2
  36   19   21 1
  37   21   36 1

#	End of record

