#	Name: ASD02500901
#	Creating user name:	WinNT
#	Creation time:	15. 06. 2019 20:23

#	Modifying user name:	WinNT
#	Modification time:	15. 06. 2019 20:23

#	Program:	/corina/corina34_cracker 3.40 0067  02.08.2006

@<TRIPOS>MOLECULE
ASD02500901
  38   40    0    0    0
SMALL
NO_CHARGES


@<TRIPOS>ATOM
   1 C1            -0.0170     1.4039     0.0098 C.2     
   2 C2             0.0021    -0.0041     0.0020 C.2     
   3 C3            -1.2756    -0.7348     0.0127 C.ar    
   4 C4            -2.4434     0.0222    -0.2105 C.ar    
   5 O5            -2.3812     1.3521    -0.4531 O.3     
   6 C6            -1.3398     2.0750     0.0202 C.2     
   7 C7            -1.3496    -2.1052     0.2332 C.ar    
   8 C8            -2.5812    -2.7265     0.2437 C.ar    
   9 C9            -3.7346    -1.9855     0.0366 C.ar    
  10 C10           -3.6720    -0.6263    -0.1882 C.ar    
  11 C11            1.2453     1.9594     0.0007 C.2     
  12 C12            2.2477     1.0545    -0.0157 C.2     
  13 S13            1.5941    -0.5777    -0.0192 S.3     
  14 C14            3.6769     1.3858    -0.0286 C.2     
  15 N15            4.5968     0.4010    -0.0446 N.am    
  16 O16            4.0317     2.5498    -0.0249 O.2     
  17 O17           -1.4806     3.2101     0.4349 O.2     
  18 C18           -2.6731    -4.2120     0.4799 C.3     
  19 C19            6.0239     0.7318    -0.0575 C.3     
  20 N20            6.5427     0.7160     1.3168 N.3     
  21 C21            7.9875     0.4507     1.3311 C.3     
  22 C22            6.2313     1.9723     2.0116 C.3     
  23 H23           -0.4493    -2.6795     0.3948 H       
  24 H24           -4.6949    -2.4794     0.0510 H       
  25 H25           -4.5805    -0.0642    -0.3467 H       
  26 H26            1.4174     3.0256     0.0058 H       
  27 H27            4.3140    -0.5269    -0.0475 H       
  28 H28           -2.7702    -4.4047     1.5483 H       
  29 H29           -3.5438    -4.6097    -0.0416 H       
  30 H30           -1.7719    -4.6962     0.1038 H       
  31 H31            6.5617    -0.0024    -0.6573 H       
  32 H32            6.1630     1.7240    -0.4869 H       
  33 H33            8.5054     1.2292     0.7709 H       
  34 H34            8.3456     0.4444     2.3606 H       
  35 H35            8.1835    -0.5185     0.8723 H       
  36 H36            5.1505     2.1093     2.0475 H       
  37 H37            6.6266     1.9338     3.0266 H       
  38 H38            6.6856     2.8059     1.4761 H       
@<TRIPOS>BOND
   1    1    2 2
   2    1   11 1
   3    1    6 1
   4    2    3 1
   5    2   13 1
   6    3    4 ar
   7    3    7 ar
   8    4    5 1
   9    4   10 ar
  10    5    6 1
  11    6   17 2
  12    7    8 ar
  13    7   23 1
  14    8    9 ar
  15    8   18 1
  16    9   10 ar
  17    9   24 1
  18   10   25 1
  19   11   12 2
  20   11   26 1
  21   12   13 1
  22   12   14 1
  23   14   15 am
  24   14   16 2
  25   15   19 1
  26   15   27 1
  27   18   28 1
  28   18   29 1
  29   18   30 1
  30   19   20 1
  31   19   31 1
  32   19   32 1
  33   20   21 1
  34   20   22 1
  35   21   33 1
  36   21   34 1
  37   21   35 1
  38   22   36 1
  39   22   37 1
  40   22   38 1

#	End of record

