#	Name: ASD01150820
#	Creating user name:	WinNT
#	Creation time:	15. 06. 2019 19:05

#	Modifying user name:	WinNT
#	Modification time:	15. 06. 2019 19:05

#	Program:	/corina/corina34_cracker 3.40 0067  02.08.2006

@<TRIPOS>MOLECULE
ASD01150820
  56   57    0    0    0
SMALL
NO_CHARGES


@<TRIPOS>ATOM
   1 C1            -0.4548     1.3911     1.2056 C.ar    
   2 N2            -0.3706     0.0917     0.9571 N.ar    
   3 C3             0.7872    -0.4616     0.6370 C.ar    
   4 C4             1.9198     0.3345     0.5632 C.ar    
   5 C5             1.7964     1.6892     0.8290 C.ar    
   6 N6             0.6089     2.1795     1.1435 N.ar    
   7 C7             3.0008     2.5924     0.7612 C.3     
   8 S8            -2.0189     2.0879     1.6212 S.3     
   9 C9            -1.5425     3.8199     1.8430 C.3     
  10 C10           -2.7755     4.6438     2.2198 C.3     
  11 C11           -2.3727     6.1078     2.4073 C.3     
  12 C12           -3.6057     6.9317     2.7841 C.3     
  13 C13           -3.2030     8.3958     2.9716 C.3     
  14 C14           -4.4360     9.2196     3.3484 C.3     
  15 C15            0.8743    -1.9397     0.3565 C.3     
  16 N16            1.0245    -2.6703     1.6221 N.3     
  17 C17            2.2639    -2.2845     2.3086 C.3     
  18 C18            2.3157    -2.9524     3.6845 C.3     
  19 C19            2.2583    -4.4726     3.5110 C.3     
  20 C20            0.9819    -4.8438     2.7509 C.3     
  21 C21            0.9688    -4.1211     1.4020 C.3     
  22 C22           -0.3146    -4.4734     0.6473 C.3     
  23 C23            3.4678    -2.7339     1.4781 C.3     
  24 H24            2.8778    -0.0918     0.3044 H       
  25 H25            3.1017     2.9881    -0.2495 H       
  26 H26            2.8767     3.4168     1.4634 H       
  27 H27            3.8950     2.0257     1.0205 H       
  28 H28           -0.7997     3.8936     2.6373 H       
  29 H29           -1.1200     4.2024     0.9138 H       
  30 H30           -3.5183     4.5701     1.4255 H       
  31 H31           -3.1979     4.2613     3.1490 H       
  32 H32           -1.6299     6.1815     3.2016 H       
  33 H33           -1.9503     6.4903     1.4782 H       
  34 H34           -4.3485     6.8580     1.9898 H       
  35 H35           -4.0282     6.5492     3.7133 H       
  36 H36           -2.4602     8.4694     3.7659 H       
  37 H37           -2.7805     8.7783     2.0425 H       
  38 H38           -4.8584     8.8371     4.2776 H       
  39 H39           -4.1491    10.2627     3.4820 H       
  40 H40           -5.1788     9.1460     2.5542 H       
  41 H41           -0.0349    -2.2682    -0.1470 H       
  42 H42            1.7352    -2.1382    -0.2819 H       
  43 H43            2.2902    -1.2015     2.4294 H       
  44 H44            3.2431    -2.6783     4.1874 H       
  45 H45            1.4658    -2.6219     4.2817 H       
  46 H46            3.1286    -4.8080     2.9470 H       
  47 H47            2.2512    -4.9511     4.4903 H       
  48 H48            0.9564    -5.9211     2.5868 H       
  49 H49            0.1110    -4.5431     3.3333 H       
  50 H50            1.8325    -4.4327     0.8146 H       
  51 H51           -0.2643    -4.0689    -0.3636 H       
  52 H52           -0.4226    -5.5570     0.6002 H       
  53 H53           -1.1713    -4.0452     1.1677 H       
  54 H54            3.4316    -2.2576     0.4984 H       
  55 H55            4.3879    -2.4477     1.9876 H       
  56 H56            3.4415    -3.8169     1.3567 H       
@<TRIPOS>BOND
   1    1    2 ar
   2    1    6 ar
   3    1    8 1
   4    2    3 ar
   5    3    4 ar
   6    3   15 1
   7    4    5 ar
   8    4   24 1
   9    5    6 ar
  10    5    7 1
  11    7   25 1
  12    7   26 1
  13    7   27 1
  14    8    9 1
  15    9   10 1
  16    9   28 1
  17    9   29 1
  18   10   11 1
  19   10   30 1
  20   10   31 1
  21   11   12 1
  22   11   32 1
  23   11   33 1
  24   12   13 1
  25   12   34 1
  26   12   35 1
  27   13   14 1
  28   13   36 1
  29   13   37 1
  30   14   38 1
  31   14   39 1
  32   14   40 1
  33   15   16 1
  34   15   41 1
  35   15   42 1
  36   16   17 1
  37   16   21 1
  38   17   18 1
  39   17   23 1
  40   17   43 1
  41   18   19 1
  42   18   44 1
  43   18   45 1
  44   19   20 1
  45   19   46 1
  46   19   47 1
  47   20   21 1
  48   20   48 1
  49   20   49 1
  50   21   22 1
  51   21   50 1
  52   22   51 1
  53   22   52 1
  54   22   53 1
  55   23   54 1
  56   23   55 1
  57   23   56 1

#	End of record

