#	Name: ASD03091445
#	Creating user name:	WinNT
#	Creation time:	15. 06. 2019 20:30

#	Modifying user name:	WinNT
#	Modification time:	15. 06. 2019 20:30

#	Program:	/corina/corina34_cracker 3.40 0067  02.08.2006

@<TRIPOS>MOLECULE
ASD03091445
  31   33    0    0    0
SMALL
NO_CHARGES


@<TRIPOS>ATOM
   1 C1            -0.1010     0.2302     0.4214 C.3     
   2 C2             0.4309    -1.1884     0.6360 C.3     
   3 N3             1.3579    -1.1981     1.7748 N.3     
   4 C4             0.6793    -0.7986     3.0143 C.3     
   5 C5             0.1546     0.6316     2.8727 C.3     
   6 C6             1.3302     1.5793     2.6115 C.3     
   7 N7             1.9339     1.2369     1.3165 N.am    
   8 C8             1.0717     1.1723     0.1286 C.3     
   9 C9            -0.8174     0.7002     1.6910 C.3     
  10 C10            3.2546     0.9861     1.2201 C.2     
  11 O11            3.9694     1.1074     2.1965 O.2     
  12 S12            4.4546     0.3440    -2.4518 S.3     
  13 N13            5.1487    -0.7728    -1.3826 N.2     
  14 C14            4.7131    -0.5063    -0.1924 C.2     
  15 C15            3.8324     0.5650    -0.0682 C.2     
  16 C16            3.5506     1.1956    -1.2617 C.2     
  17 H17           -0.7939     0.2372    -0.4199 H       
  18 H18           -0.4019    -1.8614     0.8399 H       
  19 H19            0.9540    -1.5196    -0.2611 H       
  20 H20            1.7955    -2.1014     1.8771 H       
  21 H21           -0.1545    -1.4740     3.2056 H       
  22 H22            1.3831    -0.8466     3.8452 H       
  23 H23           -0.3552     0.9262     3.7900 H       
  24 H24            0.9716     2.6084     2.5869 H       
  25 H25            2.0725     1.4674     3.4018 H       
  26 H26            1.6435     0.7920    -0.7178 H       
  27 H27            0.6920     2.1677    -0.1018 H       
  28 H28           -1.1573     1.7273     1.5582 H       
  29 H29           -1.6738     0.0547     1.8860 H       
  30 H30            5.0186    -1.0886     0.6644 H       
  31 H31            2.9006     2.0442    -1.4163 H       
@<TRIPOS>BOND
   1    1    2 1
   2    1    8 1
   3    1    9 1
   4    1   17 1
   5    2    3 1
   6    2   18 1
   7    2   19 1
   8    3    4 1
   9    3   20 1
  10    4    5 1
  11    4   21 1
  12    4   22 1
  13    5    6 1
  14    5    9 1
  15    5   23 1
  16    6    7 1
  17    6   24 1
  18    6   25 1
  19    7    8 1
  20    7   10 am
  21    8   26 1
  22    8   27 1
  23    9   28 1
  24    9   29 1
  25   10   11 2
  26   10   15 1
  27   12   13 1
  28   12   16 1
  29   13   14 2
  30   14   15 1
  31   14   30 1
  32   15   16 2
  33   16   31 1

#	End of record

