#	Name: ASD04880079
#	Creating user name:	WinNT
#	Creation time:	15. 06. 2019 20:52

#	Modifying user name:	WinNT
#	Modification time:	15. 06. 2019 20:52

#	Program:	/corina/corina34_cracker 3.40 0067  02.08.2006

@<TRIPOS>MOLECULE
ASD04880079
  36   39    0    0    0
SMALL
NO_CHARGES


@<TRIPOS>ATOM
   1 C1            -0.0144     1.2118     0.0087 C.2     
   2 O2             0.0435    -0.0026     0.0315 O.2     
   3 N3             1.1186     1.9395    -0.0483 N.am    
   4 N4             1.1864     3.3238    -0.1910 N.2     
   5 C5             2.3863     3.7920    -0.2192 C.2     
   6 C6             3.3750     2.6560    -0.0842 C.3     
   7 C7             2.4860     1.4024     0.0365 C.3     
   8 C8             3.5091     7.8389    -0.6217 C.ar    
   9 C9             2.1370     7.5171    -0.6119 C.ar    
  10 C10            1.7423     6.1866    -0.4801 C.ar    
  11 C11            2.7409     5.2163    -0.3619 C.ar    
  12 C12            4.0832     5.6155    -0.3804 C.ar    
  13 N13            4.4190     6.8793    -0.5059 N.ar    
  14 N14            3.5992     9.2034    -0.7570 N.pl3   
  15 C15            1.4187     8.7854    -0.7557 C.2     
  16 C16            2.3469     9.7516    -0.8325 C.2     
  17 C17           -1.3274     1.8897     0.0373 C.ar    
  18 C18           -2.5036     1.1434    -0.0542 C.ar    
  19 C19           -3.7275     1.7837    -0.0268 C.ar    
  20 C20           -3.7876     3.1634     0.0907 C.ar    
  21 C21           -2.6248     3.9067     0.1816 C.ar    
  22 C22           -1.3966     3.2782     0.1617 C.ar    
  23 F23           -4.8675     1.0640    -0.1152 F       
  24 H24            4.0100     2.5947    -0.9680 H       
  25 H25            3.9795     2.7800     0.8143 H       
  26 H26            2.6452     0.9080     0.9948 H       
  27 H27            2.6802     0.7157    -0.7875 H       
  28 H28            0.6973     5.9143    -0.4694 H       
  29 H29            4.8582     4.8688    -0.2894 H       
  30 H30            4.4287     9.7049    -0.7932 H       
  31 H31            0.3474     8.9182    -0.7879 H       
  32 H32            2.1371    10.8054    -0.9416 H       
  33 H33           -2.4569     0.0683    -0.1465 H       
  34 H34           -4.7463     3.6602     0.1110 H       
  35 H35           -2.6784     4.9815     0.2727 H       
  36 H36           -0.4900     3.8602     0.2378 H       
@<TRIPOS>BOND
   1    1    2 2
   2    1    3 am
   3    1   17 1
   4    3    4 1
   5    3    7 1
   6    4    5 2
   7    5    6 1
   8    5   11 1
   9    6    7 1
  10    6   24 1
  11    6   25 1
  12    7   26 1
  13    7   27 1
  14    8    9 ar
  15    8   13 ar
  16    8   14 1
  17    9   10 ar
  18    9   15 1
  19   10   11 ar
  20   10   28 1
  21   11   12 ar
  22   12   13 ar
  23   12   29 1
  24   14   16 1
  25   14   30 1
  26   15   16 2
  27   15   31 1
  28   16   32 1
  29   17   18 ar
  30   17   22 ar
  31   18   19 ar
  32   18   33 1
  33   19   20 ar
  34   19   23 1
  35   20   21 ar
  36   20   34 1
  37   21   22 ar
  38   21   35 1
  39   22   36 1

#	End of record

