#	Name: ASD02560019
#	Creating user name:	WinNT
#	Creation time:	15. 06. 2019 20:24

#	Modifying user name:	WinNT
#	Modification time:	15. 06. 2019 20:24

#	Program:	/corina/corina34_cracker 3.40 0067  02.08.2006

@<TRIPOS>MOLECULE
ASD02560019
  34   37    0    0    0
SMALL
NO_CHARGES


@<TRIPOS>ATOM
   1 C1            -0.0168     1.3884     0.0097 C.ar    
   2 C2             0.0021    -0.0041     0.0020 C.ar    
   3 N3            -1.1861    -0.7319     0.0709 N.pl3   
   4 C4            -2.0054    -0.5901     1.1781 C.ar    
   5 C5            -2.5358     0.6679     1.5004 C.ar    
   6 C6            -2.3275     1.8242     0.6236 C.2     
   7 N7            -1.2083     2.1082    -0.0256 N.am    
   8 C8             1.1924     2.0769     0.0018 C.ar    
   9 C9             2.3723     1.3482    -0.0400 C.ar    
  10 C10            2.3133    -0.0302    -0.0734 C.ar    
  11 N11            1.1537    -0.6588    -0.0525 N.ar    
  12 N12           -2.2766    -1.6429     1.9360 N.ar    
  13 C13           -3.0104    -1.5441     3.0269 C.ar    
  14 C14           -3.5323    -0.3286     3.4317 C.ar    
  15 C15           -3.2987     0.8006     2.6664 C.ar    
  16 O16           -3.2623     2.5882     0.4800 O.2     
  17 C17            1.2198     3.5833     0.0375 C.3     
  18 C18           -1.5634    -1.6369    -1.0176 C.3     
  19 C19           -1.7433    -3.1173    -0.6752 C.3     
  20 C20           -2.9657    -2.2473    -0.9748 C.3     
  21 H21           -1.2200     2.9009    -0.5846 H       
  22 H22            3.3265     1.8540    -0.0467 H       
  23 H23            3.2286    -0.6019    -0.1172 H       
  24 H24           -3.2079    -2.4282     3.6149 H       
  25 H25           -4.1170    -0.2615     4.3373 H       
  26 H26           -3.6956     1.7607     2.9615 H       
  27 H27            1.2471     3.9217     1.0733 H       
  28 H28            2.1057     3.9431    -0.4858 H       
  29 H29            0.3264     3.9745    -0.4491 H       
  30 H30           -1.1498    -1.3934    -1.9962 H       
  31 H31           -1.4484    -3.8475    -1.4288 H       
  32 H32           -1.5809    -3.4178     0.3599 H       
  33 H33           -3.6076    -1.9755    -0.1368 H       
  34 H34           -3.4751    -2.4053    -1.9255 H       
@<TRIPOS>BOND
   1    1    2 ar
   2    1    8 ar
   3    1    7 1
   4    2    3 1
   5    2   11 ar
   6    3    4 1
   7    3   18 1
   8    4    5 ar
   9    4   12 ar
  10    5    6 1
  11    5   15 ar
  12    6    7 am
  13    6   16 2
  14    7   21 1
  15    8    9 ar
  16    8   17 1
  17    9   10 ar
  18    9   22 1
  19   10   11 ar
  20   10   23 1
  21   12   13 ar
  22   13   14 ar
  23   13   24 1
  24   14   15 ar
  25   14   25 1
  26   15   26 1
  27   17   27 1
  28   17   28 1
  29   17   29 1
  30   18   19 1
  31   18   20 1
  32   18   30 1
  33   19   20 1
  34   19   31 1
  35   19   32 1
  36   20   33 1
  37   20   34 1

#	End of record

