#	Name: ASD03930265
#	Creating user name:	WinNT
#	Creation time:	15. 06. 2019 20:47

#	Modifying user name:	WinNT
#	Modification time:	15. 06. 2019 20:47

#	Program:	/corina/corina34_cracker 3.40 0067  02.08.2006

@<TRIPOS>MOLECULE
ASD03930265
  41   43    0    0    0
SMALL
NO_CHARGES


@<TRIPOS>ATOM
   1 O1             1.8034     3.9268    -3.1578 O.3     
   2 C2             0.9205     3.1126    -3.9340 C.3     
   3 C3             1.6013     1.7743    -4.2569 C.3     
   4 C4             2.1920     1.2393    -2.9757 C.2     
   5 C5             2.3716     2.0088    -1.8680 C.2     
   6 C6             2.0017     3.4700    -1.8128 C.3     
   7 N7             2.6240     0.0007    -2.6916 N.pl3   
   8 N8             3.0842     0.0019    -1.3650 N.2     
   9 C9             2.9300     1.2099    -0.8764 C.2     
  10 C10            3.2952     1.6543     0.5166 C.3     
  11 F11            3.9347     0.6065     1.1876 F       
  12 F12            4.1551     2.7555     0.4443 F       
  13 F13            2.1349     2.0134     1.2108 F       
  14 C14            2.6165    -1.0975    -3.5629 C.ar    
  15 C15            2.9841    -0.9336    -4.8917 C.ar    
  16 C16            2.9758    -2.0175    -5.7477 C.ar    
  17 C17            2.6018    -3.2649    -5.2826 C.ar    
  18 C18            2.2352    -3.4312    -3.9597 C.ar    
  19 C19            2.2471    -2.3522    -3.0974 C.ar    
  20 C20            2.5933    -4.4453    -6.2194 C.3     
  21 N21            3.9043    -5.0987    -6.1934 N.am    
  22 S22            4.0840    -6.6195    -6.8238 S.o2    
  23 C23            3.7547    -6.4166    -8.5961 C.3     
  24 O24            5.4529    -6.9306    -6.6035 O.2     
  25 O25            3.0520    -7.3782    -6.2085 O.2     
  26 H26            0.0068     2.9278    -3.3691 H       
  27 H27            0.6742     3.6277    -4.8625 H       
  28 H28            0.8661     1.0705    -4.6471 H       
  29 H29            2.3915     1.9296    -4.9915 H       
  30 H30            2.8074     4.0367    -1.3461 H       
  31 H31            1.0822     3.5961    -1.2413 H       
  32 H32            3.2759     0.0404    -5.2556 H       
  33 H33            3.2613    -1.8906    -6.7816 H       
  34 H34            1.9436    -4.4066    -3.5992 H       
  35 H35            1.9606    -2.4827    -2.0643 H       
  36 H36            1.8278    -5.1541    -5.9038 H       
  37 H37            2.3774    -4.1041    -7.2318 H       
  38 H38            4.6670    -4.6407    -5.8070 H       
  39 H39            4.4708    -5.7129    -9.0205 H       
  40 H40            3.8520    -7.3801    -9.0964 H       
  41 H41            2.7434    -6.0349    -8.7364 H       
@<TRIPOS>BOND
   1    1    2 1
   2    1    6 1
   3    2    3 1
   4    2   26 1
   5    2   27 1
   6    3    4 1
   7    3   28 1
   8    3   29 1
   9    4    5 2
  10    4    7 1
  11    5    6 1
  12    5    9 1
  13    6   30 1
  14    6   31 1
  15    7    8 1
  16    7   14 1
  17    8    9 2
  18    9   10 1
  19   10   11 1
  20   10   12 1
  21   10   13 1
  22   14   15 ar
  23   14   19 ar
  24   15   16 ar
  25   15   32 1
  26   16   17 ar
  27   16   33 1
  28   17   18 ar
  29   17   20 1
  30   18   19 ar
  31   18   34 1
  32   19   35 1
  33   20   21 1
  34   20   36 1
  35   20   37 1
  36   21   22 am
  37   21   38 1
  38   22   23 1
  39   22   24 2
  40   22   25 2
  41   23   39 1
  42   23   40 1
  43   23   41 1

#	End of record

