#	Name: ASD01915176
#	Creating user name:	WinNT
#	Creation time:	15. 06. 2019 20:05

#	Modifying user name:	WinNT
#	Modification time:	15. 06. 2019 20:05

#	Program:	/corina/corina34_cracker 3.40 0067  02.08.2006

@<TRIPOS>MOLECULE
ASD01915176
  40   41    0    0    0
SMALL
NO_CHARGES


@<TRIPOS>ATOM
   1 C1            -0.5118     0.7103    -0.7254 C.ar    
   2 C2             0.5490     1.5543    -0.9968 C.ar    
   3 C3             1.8467     1.1171    -0.8136 C.ar    
   4 C4             2.0855    -0.1719    -0.3563 C.ar    
   5 C5             1.0168    -1.0186    -0.0842 C.ar    
   6 C6            -0.2784    -0.5746    -0.2697 C.ar    
   7 Cl7            1.3094    -2.6315     0.4873 Cl      
   8 N8             3.3970    -0.6174    -0.1704 N.am    
   9 C9             4.1404    -1.1950    -1.2928 C.3     
  10 C10            4.7902    -0.0908    -2.0863 C.2     
  11 N11            5.4305    -0.3752    -3.2376 N.am    
  12 C12            6.0621     0.6982    -4.0090 C.3     
  13 S13            4.1106    -0.4924     1.3187 S.o2    
  14 O14            5.4932    -0.3316     1.0323 O.2     
  15 O15            3.3747     0.5306     1.9753 O.2     
  16 C16            3.8058    -2.0994     2.1031 C.3     
  17 O17            4.7369     1.0538    -1.6888 O.2     
  18 C18            6.7142     0.1102    -5.2619 C.3     
  19 C19            7.3292     1.0892    -6.2640 C.3     
  20 C20            8.2350     0.2233    -5.3861 C.3     
  21 C21            0.2894     2.9532    -1.4936 C.3     
  22 F22           -1.0899     3.1622    -1.5991 F       
  23 F23            0.8334     3.8761    -0.5938 F       
  24 F24            0.8837     3.1200    -2.7491 F       
  25 H25           -1.5252     1.0565    -0.8653 H       
  26 H26            2.6746     1.7772    -1.0262 H       
  27 H27           -1.1093    -1.2315    -0.0586 H       
  28 H28            4.9079    -1.8688    -0.9120 H       
  29 H29            3.4561    -1.7496    -1.9349 H       
  30 H30            5.4731    -1.2906    -3.5555 H       
  31 H31            5.3074     1.4285    -4.3009 H       
  32 H32            6.8222     1.1856    -3.3984 H       
  33 H33            4.1231    -2.8974     1.4318 H       
  34 H34            4.3695    -2.1621     3.0339 H       
  35 H35            2.7418    -2.2043     2.3149 H       
  36 H36            6.2418    -0.7876    -5.6606 H       
  37 H37            7.2617     0.8354    -7.3219 H       
  38 H38            7.2692     2.1523    -6.0306 H       
  39 H39            8.7709     0.7166    -4.5753 H       
  40 H40            8.7634    -0.6003    -5.8665 H       
@<TRIPOS>BOND
   1    1    2 ar
   2    1    6 ar
   3    1   25 1
   4    2    3 ar
   5    2   21 1
   6    3    4 ar
   7    3   26 1
   8    4    5 ar
   9    4    8 1
  10    5    6 ar
  11    5    7 1
  12    6   27 1
  13    8    9 1
  14    8   13 am
  15    9   10 1
  16    9   28 1
  17    9   29 1
  18   10   11 am
  19   10   17 2
  20   11   12 1
  21   11   30 1
  22   12   18 1
  23   12   31 1
  24   12   32 1
  25   13   14 2
  26   13   15 2
  27   13   16 1
  28   16   33 1
  29   16   34 1
  30   16   35 1
  31   18   19 1
  32   18   20 1
  33   18   36 1
  34   19   20 1
  35   19   37 1
  36   19   38 1
  37   20   39 1
  38   20   40 1
  39   21   22 1
  40   21   23 1
  41   21   24 1

#	End of record

