#	Name: ASD03090502
#	Creating user name:	WinNT
#	Creation time:	15. 06. 2019 20:28

#	Modifying user name:	WinNT
#	Modification time:	15. 06. 2019 20:28

#	Program:	/corina/corina34_cracker 3.40 0067  02.08.2006

@<TRIPOS>MOLECULE
ASD03090502
  36   38    0    0    0
SMALL
NO_CHARGES


@<TRIPOS>ATOM
   1 C1            -0.0179     1.4708     0.0101 C.2     
   2 C2             0.0021    -0.0041     0.0020 C.ar    
   3 C3             1.2216    -0.6994    -0.0134 C.ar    
   4 C4             1.1931    -2.0673    -0.0205 C.ar    
   5 C5            -0.0362    -2.7260    -0.0123 C.ar    
   6 N6            -1.1746    -2.0446     0.0022 N.ar    
   7 C7            -1.1912    -0.7282     0.0153 C.ar    
   8 O8             1.0268     2.0931     0.0035 O.2     
   9 N9            -1.1941     2.1288     0.0193 N.am    
  10 S10           -0.0781    -4.4875    -0.0220 S.3     
  11 C11           -1.8675    -4.7594    -0.0062 C.3     
  12 F12           -2.4387    -4.1709    -1.1396 F       
  13 F13           -2.1305    -6.1335    -0.0116 F       
  14 F14           -2.4165    -4.1840     1.1448 F       
  15 C15           -1.2140     3.5936     0.0273 C.3     
  16 N16           -5.5112     5.0573    -2.1445 N.pl3   
  17 C17           -6.6970     5.4564    -1.5906 C.2     
  18 C18           -6.6113     5.4215    -0.2515 C.2     
  19 C19           -5.2601     4.9624     0.0793 C.ar    
  20 C20           -4.5809     4.7271     1.2764 C.ar    
  21 C21           -3.2867     4.2902     1.2473 C.ar    
  22 C22           -2.6415     4.0766     0.0367 C.ar    
  23 C23           -3.2929     4.3020    -1.1559 C.ar    
  24 C24           -4.6107     4.7479    -1.1499 C.ar    
  25 H25            2.1610    -0.1667    -0.0198 H       
  26 H26            2.1138    -2.6316    -0.0327 H       
  27 H27           -2.1355    -0.2045     0.0317 H       
  28 H28           -2.0275     1.6324     0.0205 H       
  29 H29           -0.7010     3.9591     0.9169 H       
  30 H30           -0.7094     3.9687    -0.8630 H       
  31 H31           -5.3329     4.9972    -3.0961 H       
  32 H32           -7.5722     5.7556    -2.1483 H       
  33 H33           -7.3907     5.6824     0.4492 H       
  34 H34           -5.0764     4.8912     2.2219 H       
  35 H35           -2.7617     4.1087     2.1735 H       
  36 H36           -2.7822     4.1332    -2.0925 H       
@<TRIPOS>BOND
   1    1    2 1
   2    1    8 2
   3    1    9 am
   4    2    3 ar
   5    2    7 ar
   6    3    4 ar
   7    3   25 1
   8    4    5 ar
   9    4   26 1
  10    5    6 ar
  11    5   10 1
  12    6    7 ar
  13    7   27 1
  14    9   15 1
  15    9   28 1
  16   10   11 1
  17   11   12 1
  18   11   13 1
  19   11   14 1
  20   15   22 1
  21   15   29 1
  22   15   30 1
  23   16   17 1
  24   16   24 1
  25   16   31 1
  26   17   18 2
  27   17   32 1
  28   18   19 1
  29   18   33 1
  30   19   20 ar
  31   19   24 ar
  32   20   21 ar
  33   20   34 1
  34   21   22 ar
  35   21   35 1
  36   22   23 ar
  37   23   24 ar
  38   23   36 1

#	End of record

