#	Name: ASD01811699
#	Creating user name:	WinNT
#	Creation time:	15. 06. 2019 19:27

#	Modifying user name:	WinNT
#	Modification time:	15. 06. 2019 19:27

#	Program:	/corina/corina34_cracker 3.40 0067  02.08.2006

@<TRIPOS>MOLECULE
ASD01811699
  49   53    0    0    0
SMALL
NO_CHARGES


@<TRIPOS>ATOM
   1 C1            -0.0167     1.3805     0.0096 C.ar    
   2 C2             0.0021    -0.0041     0.0020 C.ar    
   3 C3             1.2075    -0.6836    -0.0127 C.ar    
   4 C4             2.3988     0.0116    -0.0199 C.ar    
   5 C5             2.3881     1.4079    -0.0127 C.ar    
   6 C6             1.1657     2.0837     0.0021 C.ar    
   7 C7             3.4707     2.4099    -0.0174 C.2     
   8 N8             2.9565     3.6519    -0.0065 N.am    
   9 C9             1.4924     3.5561     0.0065 C.3     
  10 O10            4.6582     2.1497    -0.0293 O.2     
  11 C11            3.6959     4.8404    -0.0067 C.ar    
  12 C12            4.0749     5.4257     1.1965 C.ar    
  13 C13            4.8053     6.6001     1.1916 C.ar    
  14 C14            5.1576     7.1913    -0.0076 C.ar    
  15 C15            4.7814     6.6112    -1.2052 C.ar    
  16 C16            4.0575     5.4347    -1.2081 C.ar    
  17 F17            3.7297     4.8484     2.3682 F       
  18 C18            1.2187    -2.1906    -0.0204 C.3     
  19 C19            1.2092    -2.6857    -1.4437 C.ar    
  20 C20            2.4028    -2.9069    -2.1164 C.ar    
  21 C21            2.3507    -3.3617    -3.4224 C.ar    
  22 C22            1.1083    -3.5807    -4.0140 C.ar    
  23 N23           -0.0101    -3.3564    -3.3361 N.ar    
  24 C24            0.0117    -2.9292    -2.0896 C.ar    
  25 C25            1.0354    -4.0680    -5.4130 C.2     
  26 C26            2.1262    -4.4432    -6.2223 C.2     
  27 N27            1.6596    -4.8154    -7.3844 N.2     
  28 N28            0.2650    -4.6939    -7.3639 N.pl3   
  29 C29           -0.1012    -4.2405    -6.1494 C.2     
  30 C30           -0.6407    -5.0107    -8.4710 C.3     
  31 H31           -0.9590     1.9081     0.0170 H       
  32 H32           -0.9267    -0.5552     0.0079 H       
  33 H33            3.3374    -0.5226    -0.0306 H       
  34 H34            1.0778     4.0343    -0.8810 H       
  35 H35            1.0943     4.0255     0.9061 H       
  36 H36            5.1004     7.0559     2.1252 H       
  37 H37            5.7278     8.1085    -0.0091 H       
  38 H38            5.0579     7.0763    -2.1399 H       
  39 H39            3.7647     4.9826    -2.1443 H       
  40 H40            2.1161    -2.5498     0.4833 H       
  41 H41            0.3363    -2.5631     0.4998 H       
  42 H42            3.3511    -2.7278    -1.6317 H       
  43 H43            3.2603    -3.5439    -3.9754 H       
  44 H44           -0.9189    -2.7579    -1.5689 H       
  45 H45            3.1665    -4.4258    -5.9327 H       
  46 H46           -1.1106    -4.0434    -5.8199 H       
  47 H47           -0.9448    -6.0553    -8.4041 H       
  48 H48           -1.5217    -4.3714    -8.4139 H       
  49 H49           -0.1295    -4.8411    -9.4186 H       
@<TRIPOS>BOND
   1    1    2 ar
   2    1    6 ar
   3    1   31 1
   4    2    3 ar
   5    2   32 1
   6    3    4 ar
   7    3   18 1
   8    4    5 ar
   9    4   33 1
  10    5    6 ar
  11    5    7 1
  12    6    9 1
  13    7    8 am
  14    7   10 2
  15    8    9 1
  16    8   11 1
  17    9   34 1
  18    9   35 1
  19   11   12 ar
  20   11   16 ar
  21   12   13 ar
  22   12   17 1
  23   13   14 ar
  24   13   36 1
  25   14   15 ar
  26   14   37 1
  27   15   16 ar
  28   15   38 1
  29   16   39 1
  30   18   19 1
  31   18   40 1
  32   18   41 1
  33   19   20 ar
  34   19   24 ar
  35   20   21 ar
  36   20   42 1
  37   21   22 ar
  38   21   43 1
  39   22   23 ar
  40   22   25 1
  41   23   24 ar
  42   24   44 1
  43   25   26 1
  44   25   29 2
  45   26   27 2
  46   26   45 1
  47   27   28 1
  48   28   29 1
  49   28   30 1
  50   29   46 1
  51   30   47 1
  52   30   48 1
  53   30   49 1

#	End of record

