#	Name: ASD02198058
#	Creating user name:	WinNT
#	Creation time:	15. 06. 2019 20:18

#	Modifying user name:	WinNT
#	Modification time:	15. 06. 2019 20:18

#	Program:	/corina/corina34_cracker 3.40 0067  02.08.2006

@<TRIPOS>MOLECULE
ASD02198058
  57   59    0    0    0
SMALL
NO_CHARGES


@<TRIPOS>ATOM
   1 C1             0.4428     1.1258     0.6214 C.2     
   2 C2             0.2623    -0.2004     0.2914 C.2     
   3 C3            -0.8534    -0.6696    -0.4739 C.1     
   4 S4             1.8678     1.3365     1.5335 S.3     
   5 C5             2.2360    -0.3799     1.4771 C.2     
   6 C6             1.2643    -1.0433     0.7693 C.2     
   7 C7             3.3617    -0.9863     2.0707 C.2     
   8 C8             4.4110    -0.1503     2.6889 C.2     
   9 O9             3.4692    -2.2010     2.0737 O.2     
  10 N10            1.2784    -2.4130     0.5520 N.pl3   
  11 N11           -0.4090     2.1432     0.2585 N.pl3   
  12 N12           -1.7385    -1.0419    -1.0810 N.1     
  13 C13            4.4758     1.2606     2.6731 C.2     
  14 N14            5.5469     1.6246     3.3242 N.2     
  15 N15            6.2097     0.4801     3.7816 N.pl3   
  16 C16            5.5069    -0.6017     3.3944 C.2     
  17 C17            7.4001     0.4627     4.5211 C.ar    
  18 C18            8.3821     1.4146     4.2812 C.ar    
  19 C19            5.8580    -2.0405     3.6731 C.3     
  20 C20            7.5975    -0.5029     5.4991 C.ar    
  21 C21            8.7716    -0.5174     6.2262 C.ar    
  22 C22            9.7499     0.4287     5.9814 C.ar    
  23 C23            9.5541     1.3948     5.0116 C.ar    
  24 C24           -0.0586     3.5338     0.5580 C.3     
  25 C25            0.1231     4.3069    -0.7498 C.3     
  26 C26           -1.1616     4.1668     1.3666 C.2     
  27 O27           -1.0571     5.4464     1.7582 O.3     
  28 O28           -2.1400     3.5225     1.6623 O.2     
  29 C29           -2.1573     5.9903     2.5342 C.3     
  30 C30            1.2639     3.6834    -1.5565 C.3     
  31 C31            1.3423     4.3527    -2.9301 C.3     
  32 C32            2.5855     3.8881    -0.8132 C.3     
  33 H33            2.0012    -2.9531     0.9080 H       
  34 H34            0.5655    -2.8309     0.0441 H       
  35 H35           -1.2417     1.9399    -0.1957 H       
  36 H36            3.7635     1.9228     2.2035 H       
  37 H37            8.2297     2.1694     3.5239 H       
  38 H38            5.4032    -2.3498     4.6142 H       
  39 H39            5.4837    -2.6689     2.8649 H       
  40 H40            6.9409    -2.1436     3.7417 H       
  41 H41            6.8334    -1.2416     5.6913 H       
  42 H42            8.9257    -1.2683     6.9871 H       
  43 H43           10.6670     0.4157     6.5517 H       
  44 H44           10.3200     2.1325     4.8226 H       
  45 H45            0.8703     3.5599     1.1276 H       
  46 H46           -0.7988     4.2620    -1.3296 H       
  47 H47            0.3619     5.3469    -0.5269 H       
  48 H48           -1.9461     7.0298     2.7850 H       
  49 H49           -3.0756     5.9370     1.9493 H       
  50 H50           -2.2762     5.4123     3.4506 H       
  51 H51            1.0792     2.6166    -1.6822 H       
  52 H52            1.5270     5.4196    -2.8044 H       
  53 H53            2.1550     3.9085    -3.5048 H       
  54 H54            0.4008     4.2069    -3.4596 H       
  55 H55            2.5359     3.3963     0.1583 H       
  56 H56            3.4005     3.4594    -1.3963 H       
  57 H57            2.7615     4.9545    -0.6720 H       
@<TRIPOS>BOND
   1    1    2 2
   2    1    4 1
   3    1   11 1
   4    2    3 1
   5    2    6 1
   6    3   12 3
   7    4    5 1
   8    5    6 2
   9    5    7 1
  10    6   10 1
  11    7    8 1
  12    7    9 2
  13    8   13 1
  14    8   16 2
  15   10   33 1
  16   10   34 1
  17   11   24 1
  18   11   35 1
  19   13   14 2
  20   13   36 1
  21   14   15 1
  22   15   16 1
  23   15   17 1
  24   16   19 1
  25   17   18 ar
  26   17   20 ar
  27   18   23 ar
  28   18   37 1
  29   19   38 1
  30   19   39 1
  31   19   40 1
  32   20   21 ar
  33   20   41 1
  34   21   22 ar
  35   21   42 1
  36   22   23 ar
  37   22   43 1
  38   23   44 1
  39   24   25 1
  40   24   26 1
  41   24   45 1
  42   25   30 1
  43   25   46 1
  44   25   47 1
  45   26   27 1
  46   26   28 2
  47   27   29 1
  48   29   48 1
  49   29   49 1
  50   29   50 1
  51   30   31 1
  52   30   32 1
  53   30   51 1
  54   31   52 1
  55   31   53 1
  56   31   54 1
  57   32   55 1
  58   32   56 1
  59   32   57 1

#	End of record

