#	Name: ASD08070500
#	Creating user name:	WinNT
#	Creation time:	15. 06. 2019 21:14

#	Modifying user name:	WinNT
#	Modification time:	15. 06. 2019 21:14

#	Program:	/corina/corina34_cracker 3.40 0067  02.08.2006

@<TRIPOS>MOLECULE
ASD08070500
  40   41    0    0    0
SMALL
NO_CHARGES


@<TRIPOS>ATOM
   1 C1             0.1621     1.4441     0.5007 C.2     
   2 C2             0.0537    -0.0467     0.3084 C.3     
   3 C3            -0.9548    -0.3456    -0.8026 C.3     
   4 C4            -2.3557     0.0633    -0.3433 C.3     
   5 C5            -3.3485    -0.1426    -1.4891 C.3     
   6 O6             1.2246     1.9978     0.3439 O.2     
   7 O7            -0.9228     2.1576     0.8407 O.3     
   8 C8             1.6909    -1.8510     0.2743 C.2     
   9 O9             0.8671    -2.5718     0.8051 O.2     
  10 N10            1.3637    -0.5877    -0.0625 N.am    
  11 O11            4.0343    -1.6505    -0.5814 O.3     
  12 C12            3.0431    -2.3578     0.0003 C.2     
  13 C13            3.4834    -3.6083     0.2947 C.2     
  14 C14            4.8751    -3.6633    -0.1517 C.ar    
  15 C15            5.1523    -2.3938    -0.6930 C.ar    
  16 C16            5.8649    -4.6485    -0.1345 C.ar    
  17 C17            7.1024    -4.3742    -0.6452 C.ar    
  18 C18            7.3814    -3.1241    -1.1797 C.ar    
  19 C19            6.4184    -2.1382    -1.2063 C.ar    
  20 C20            8.1716    -5.4361    -0.6274 C.3     
  21 Cl21          -2.8457    -0.9494     1.0657 Cl      
  22 C22           -0.7444     3.5887     1.0091 C.3     
  23 H23           -0.2808    -0.5094     1.2369 H       
  24 H24           -0.6871     0.2168    -1.6972 H       
  25 H25           -0.9428    -1.4122    -1.0268 H       
  26 H26           -2.3503     1.1135    -0.0515 H       
  27 H27           -3.3539    -1.1928    -1.7809 H       
  28 H28           -4.3466     0.1487    -1.1619 H       
  29 H29           -3.0523     0.4696    -2.3409 H       
  30 H30            1.9954    -0.0367    -0.5506 H       
  31 H31            2.9202    -4.4014     0.7639 H       
  32 H32            5.6533    -5.6227     0.2809 H       
  33 H33            8.3641    -2.9215    -1.5794 H       
  34 H34            6.6471    -1.1694    -1.6252 H       
  35 H35            8.1204    -6.0187    -1.5472 H       
  36 H36            9.1511    -4.9642    -0.5502 H       
  37 H37            8.0165    -6.0935     0.2282 H       
  38 H38           -0.0137     3.7736     1.7965 H       
  39 H39           -0.3893     4.0230     0.0746 H       
  40 H40           -1.6964     4.0438     1.2827 H       
@<TRIPOS>BOND
   1    1    2 1
   2    1    6 2
   3    1    7 1
   4    2    3 1
   5    2   10 1
   6    2   23 1
   7    3    4 1
   8    3   24 1
   9    3   25 1
  10    4    5 1
  11    4   21 1
  12    4   26 1
  13    5   27 1
  14    5   28 1
  15    5   29 1
  16    7   22 1
  17    8    9 2
  18    8   10 am
  19    8   12 1
  20   10   30 1
  21   11   12 1
  22   11   15 1
  23   12   13 2
  24   13   14 1
  25   13   31 1
  26   14   15 ar
  27   14   16 ar
  28   15   19 ar
  29   16   17 ar
  30   16   32 1
  31   17   18 ar
  32   17   20 1
  33   18   19 ar
  34   18   33 1
  35   19   34 1
  36   20   35 1
  37   20   36 1
  38   20   37 1
  39   22   38 1
  40   22   39 1
  41   22   40 1

#	End of record

