#	Name: ASD05303018
#	Creating user name:	WinNT
#	Creation time:	15. 06. 2019 20:58

#	Modifying user name:	WinNT
#	Modification time:	15. 06. 2019 20:58

#	Program:	/corina/corina34_cracker 3.40 0067  02.08.2006

@<TRIPOS>MOLECULE
ASD05303018
  25   27    0    0    0
SMALL
NO_CHARGES


@<TRIPOS>ATOM
   1 C1             0.0303     1.4435    -0.2909 C.ar    
   2 C2             0.0252     0.0614    -0.3048 C.ar    
   3 C3             1.2169    -0.6367    -0.2186 C.ar    
   4 C4             2.4126     0.0526    -0.1188 C.ar    
   5 C5             2.4218     1.4458    -0.1080 C.ar    
   6 C6             1.2230     2.1366    -0.1931 C.ar    
   7 O7             3.5926     2.1264    -0.0185 O.3     
   8 N8             3.6319    -0.6425    -0.0219 N.am    
   9 C9             4.7207     1.4777     0.3674 C.ar    
  10 C10            4.7691     0.0853     0.3730 C.ar    
  11 C11            5.9229    -0.5713     0.7635 C.ar    
  12 C12            7.0323     0.1589     1.1522 C.ar    
  13 C13            6.9870     1.5404     1.1501 C.ar    
  14 C14            5.8364     2.2008     0.7595 C.ar    
  15 C15            3.7076    -1.9596    -0.2973 C.2     
  16 O16            2.6926    -2.6055    -0.4575 O.2     
  17 Cl17           5.2571    -2.7324    -0.4231 Cl      
  18 H18           -0.9015     1.9849    -0.3614 H       
  19 H19           -0.9095    -0.4740    -0.3825 H       
  20 H20            1.2137    -1.7166    -0.2288 H       
  21 H21            1.2206     3.2166    -0.1833 H       
  22 H22            5.9576    -1.6507     0.7646 H       
  23 H23            7.9340    -0.3510     1.4577 H       
  24 H24            7.8543     2.1069     1.4555 H       
  25 H25            5.8072     3.2804     0.7599 H       
@<TRIPOS>BOND
   1    1    2 ar
   2    1    6 ar
   3    1   18 1
   4    2    3 ar
   5    2   19 1
   6    3    4 ar
   7    3   20 1
   8    4    5 ar
   9    4    8 1
  10    5    6 ar
  11    5    7 1
  12    6   21 1
  13    7    9 1
  14    8   10 1
  15    8   15 am
  16    9   10 ar
  17    9   14 ar
  18   10   11 ar
  19   11   12 ar
  20   11   22 1
  21   12   13 ar
  22   12   23 1
  23   13   14 ar
  24   13   24 1
  25   14   25 1
  26   15   16 2
  27   15   17 1

#	End of record

