#	Name: ASD02560349
#	Creating user name:	WinNT
#	Creation time:	15. 06. 2019 20:25

#	Modifying user name:	WinNT
#	Modification time:	15. 06. 2019 20:25

#	Program:	/corina/corina34_cracker 3.40 0067  02.08.2006

@<TRIPOS>MOLECULE
ASD02560349
  45   48    0    0    0
SMALL
NO_CHARGES


@<TRIPOS>ATOM
   1 C1             0.5074     1.5356    -1.8347 C.2     
   2 C2             0.6270     0.1572    -2.0858 C.2     
   3 C3             1.6342    -0.5505    -1.5360 C.2     
   4 N4             2.5541     0.0602    -0.7270 N.pl3   
   5 C5             2.4632     1.4075    -0.4635 C.2     
   6 C6             1.4127     2.1575    -1.0335 C.2     
   7 C7             3.6492    -0.4124    -0.0568 C.2     
   8 C8             4.2062     0.6620     0.6048 C.2     
   9 N9             3.4611     1.7490     0.3356 N.2     
  10 C10            5.4143     0.6252     1.4625 C.ar    
  11 N11            4.1129    -1.7284    -0.0444 N.pl3   
  12 C12            3.4050    -2.7128     0.6528 C.ar    
  13 C13            6.2881     1.7119     1.4860 C.ar    
  14 C14            5.6770    -0.4938     2.2523 C.ar    
  15 C15            3.7905    -4.0441     0.5589 C.ar    
  16 C16            3.0908    -5.0152     1.2476 C.ar    
  17 C17            2.0031    -4.6617     2.0326 C.ar    
  18 C18            1.6170    -3.3327     2.1266 C.ar    
  19 C19            2.3193    -2.3592     1.4440 C.ar    
  20 O20            1.3144    -5.6189     2.7101 O.3     
  21 C21            0.2052    -5.1841     3.4992 C.3     
  22 C22            7.4115     1.6742     2.2852 C.ar    
  23 C23            7.6731     0.5563     3.0654 C.ar    
  24 C24            6.8022    -0.5246     3.0492 C.ar    
  25 O25            8.7816     0.5222     3.8512 O.3     
  26 C26            8.9899    -0.6589     4.6283 C.3     
  27 H27           -0.2987     2.0994    -2.2805 H       
  28 H28           -0.0920    -0.3373    -2.7222 H       
  29 H29            1.7157    -1.6088    -1.7353 H       
  30 H30            1.3286     3.2158    -0.8351 H       
  31 H31            4.9263    -1.9606    -0.5193 H       
  32 H32            6.0856     2.5818     0.8787 H       
  33 H33            4.9999    -1.3351     2.2402 H       
  34 H34            4.6369    -4.3196    -0.0527 H       
  35 H35            3.3904    -6.0502     1.1748 H       
  36 H36            0.7695    -3.0587     2.7375 H       
  37 H37            2.0185    -1.3245     1.5173 H       
  38 H38            0.5516    -4.4811     4.2567 H       
  39 H39           -0.5276    -4.6950     2.8575 H       
  40 H40           -0.2544    -6.0447     3.9852 H       
  41 H41            8.0886     2.5154     2.3039 H       
  42 H42            7.0088    -1.3928     3.6574 H       
  43 H43            8.1470    -0.8023     5.3044 H       
  44 H44            9.0743    -1.5198     3.9652 H       
  45 H45            9.9071    -0.5553     5.2080 H       
@<TRIPOS>BOND
   1    1    2 1
   2    1    6 2
   3    1   27 1
   4    2    3 2
   5    2   28 1
   6    3    4 1
   7    3   29 1
   8    4    5 1
   9    4    7 1
  10    5    6 1
  11    5    9 2
  12    6   30 1
  13    7    8 2
  14    7   11 1
  15    8    9 1
  16    8   10 1
  17   10   13 ar
  18   10   14 ar
  19   11   12 1
  20   11   31 1
  21   12   15 ar
  22   12   19 ar
  23   13   22 ar
  24   13   32 1
  25   14   24 ar
  26   14   33 1
  27   15   16 ar
  28   15   34 1
  29   16   17 ar
  30   16   35 1
  31   17   18 ar
  32   17   20 1
  33   18   19 ar
  34   18   36 1
  35   19   37 1
  36   20   21 1
  37   21   38 1
  38   21   39 1
  39   21   40 1
  40   22   23 ar
  41   22   41 1
  42   23   24 ar
  43   23   25 1
  44   24   42 1
  45   25   26 1
  46   26   43 1
  47   26   44 1
  48   26   45 1

#	End of record

