#	Name: ASD03330975
#	Creating user name:	WinNT
#	Creation time:	15. 06. 2019 20:38

#	Modifying user name:	WinNT
#	Modification time:	15. 06. 2019 20:38

#	Program:	/corina/corina34_cracker 3.40 0067  02.08.2006

@<TRIPOS>MOLECULE
ASD03330975
  57   59    0    0    0
SMALL
NO_CHARGES


@<TRIPOS>ATOM
   1 N1             0.1548     0.9731    -0.0297 N.pl3   
   2 C2             0.0389    -0.3640     0.1894 C.2     
   3 C3             1.1622    -1.2907     0.5754 C.3     
   4 N4             1.9328    -0.6837     1.6719 N.3     
   5 C5             3.0077     0.1668     1.1573 C.3     
   6 C6             2.5904     0.8468    -0.1436 C.3     
   7 C7             1.3854     1.7567     0.1104 C.3     
   8 C8            -1.0778     1.4370    -0.3870 C.2     
   9 N9            -1.9236     0.4333    -0.3719 N.2     
  10 C10           -1.2660    -0.6928    -0.0171 C.2     
  11 C11           -1.8557    -2.0360     0.1211 C.2     
  12 O12           -1.1569    -2.9763     0.4480 O.2     
  13 N13           -3.1695    -2.2227    -0.1147 N.am    
  14 C14           -4.9891    -3.6564    -0.8378 C.2     
  15 C15           -3.7558    -3.5582     0.0227 C.3     
  16 C16           -4.1337    -3.8013     1.4852 C.3     
  17 C17           -5.2019    -2.7919     1.9105 C.3     
  18 O18           -5.6245    -2.6580    -1.1030 O.2     
  19 N19           -5.3859    -4.8537    -1.3127 N.am    
  20 C20           -6.6423    -4.9663    -2.0577 C.3     
  21 C21           -4.6827    -5.2209     1.6409 C.3     
  22 C22           -2.8944    -3.6342     2.3667 C.3     
  23 C23           -1.4060     2.8366    -0.7330 C.ar    
  24 C24           -2.1814     3.1168    -1.8617 C.ar    
  25 C25           -2.4851     4.4267    -2.1795 C.ar    
  26 C26           -2.0222     5.4603    -1.3821 C.ar    
  27 C27           -1.2521     5.1871    -0.2613 C.ar    
  28 C28           -0.9477     3.8821     0.0692 C.ar    
  29 F29           -2.3215     6.7394    -1.6973 F       
  30 F30           -2.6325     2.1092    -2.6404 F       
  31 Cl31          -0.6753     6.4890     0.7316 Cl      
  32 H32            0.7507    -2.2450     0.9039 H       
  33 H33            1.8142    -1.4502    -0.2834 H       
  34 H34            1.3300    -0.1674     2.2949 H       
  35 H35            3.2475     0.9289     1.8988 H       
  36 H36            3.8915    -0.4444     0.9744 H       
  37 H37            3.4205     1.4424    -0.5236 H       
  38 H38            2.3231     0.0884    -0.8794 H       
  39 H39            1.3839     2.5704    -0.6149 H       
  40 H40            1.4440     2.1661     1.1189 H       
  41 H41           -3.7268    -1.4729    -0.3754 H       
  42 H42           -3.0308    -4.3077    -0.2947 H       
  43 H43           -6.0848    -2.9110     1.2825 H       
  44 H44           -5.4712    -2.9651     2.9524 H       
  45 H45           -4.8108    -1.7806     1.7995 H       
  46 H46           -4.8397    -5.6408    -1.1612 H       
  47 H47           -7.4700    -4.6466    -1.4246 H       
  48 H48           -6.5972    -4.3333    -2.9439 H       
  49 H49           -6.7945    -6.0028    -2.3588 H       
  50 H50           -3.9006    -5.9413     1.4010 H       
  51 H51           -5.0130    -5.3721     2.6686 H       
  52 H52           -5.5256    -5.3608     0.9641 H       
  53 H53           -2.5033    -2.6229     2.2558 H       
  54 H54           -3.1636    -3.8074     3.4087 H       
  55 H55           -2.1334    -4.3534     2.0637 H       
  56 H56           -3.0841     4.6450    -3.0513 H       
  57 H57           -0.3521     3.6708     0.9449 H       
@<TRIPOS>BOND
   1    1    2 1
   2    1    7 1
   3    1    8 1
   4    2    3 1
   5    2   10 2
   6    3    4 1
   7    3   32 1
   8    3   33 1
   9    4    5 1
  10    4   34 1
  11    5    6 1
  12    5   35 1
  13    5   36 1
  14    6    7 1
  15    6   37 1
  16    6   38 1
  17    7   39 1
  18    7   40 1
  19    8    9 2
  20    8   23 1
  21    9   10 1
  22   10   11 1
  23   11   12 2
  24   11   13 am
  25   13   15 1
  26   13   41 1
  27   14   18 2
  28   14   19 am
  29   14   15 1
  30   15   16 1
  31   15   42 1
  32   16   17 1
  33   16   21 1
  34   16   22 1
  35   17   43 1
  36   17   44 1
  37   17   45 1
  38   19   20 1
  39   19   46 1
  40   20   47 1
  41   20   48 1
  42   20   49 1
  43   21   50 1
  44   21   51 1
  45   21   52 1
  46   22   53 1
  47   22   54 1
  48   22   55 1
  49   23   24 ar
  50   23   28 ar
  51   24   25 ar
  52   24   30 1
  53   25   26 ar
  54   25   56 1
  55   26   27 ar
  56   26   29 1
  57   27   28 ar
  58   27   31 1
  59   28   57 1

#	End of record

