#	Name: ASD01700014
#	Creating user name:	WinNT
#	Creation time:	15. 06. 2019 19:22

#	Modifying user name:	WinNT
#	Modification time:	15. 06. 2019 19:22

#	Program:	/corina/corina34_cracker 3.40 0067  02.08.2006

@<TRIPOS>MOLECULE
ASD01700014
  59   61    0    0    0
SMALL
NO_CHARGES


@<TRIPOS>ATOM
   1 C1            -0.0167     1.3833     0.0096 C.ar    
   2 C2             0.0021    -0.0041     0.0020 C.ar    
   3 C3             1.2139    -0.6788    -0.0132 C.ar    
   4 C4             2.3989     0.0317    -0.0207 C.ar    
   5 C5             2.3774     1.4139    -0.0126 C.ar    
   6 C6             1.1706     2.0890     0.0021 C.ar    
   7 C7             1.1509     3.5958     0.0104 C.3     
   8 N8             1.1577     4.0767     1.3942 N.am    
   9 C9             1.1427     5.4003     1.6477 C.2     
  10 C10            1.1496     5.8863     3.0462 C.ar    
  11 O11            1.1236     6.1949     0.7284 O.2     
  12 C12            1.1625     6.7974     5.6681 C.ar    
  13 C13            1.1838     5.4255     5.4047 C.ar    
  14 C14            1.1774     4.9736     4.1012 C.ar    
  15 C15            1.1341     7.2566     3.3081 C.ar    
  16 C16            1.1405     7.7105     4.6109 C.ar    
  17 C17            1.1689     7.2828     7.0651 C.2     
  18 N18            0.0048     7.4835     7.7140 N.am    
  19 C19            0.0111     7.9644     9.0979 C.3     
  20 C20            0.1655     6.7946    10.0354 C.2     
  21 O21            0.2605     5.6743     9.5931 O.2     
  22 O22            2.2239     7.5007     7.6279 O.2     
  23 C23           -1.3060     8.6846     9.3935 C.3     
  24 N24           -1.5136     9.7473     8.4068 N.am    
  25 C25           -2.6164    10.5196     8.4700 C.2     
  26 C26           -2.8260    11.5922     7.4741 C.ar    
  27 O27           -3.4386    10.3343     9.3458 O.2     
  28 C28           -3.2194    13.6063     5.6041 C.ar    
  29 C29           -2.0864    12.8088     5.5337 C.ar    
  30 C30           -1.8862    11.8029     6.4646 C.ar    
  31 C31           -3.9668    12.3928     7.5377 C.ar    
  32 C32           -4.1592    13.3965     6.6028 C.ar    
  33 O33           -1.1690    13.0182     4.5531 O.3     
  34 O34           -5.2674    14.1806     6.6673 O.3     
  35 O35            0.1975     6.9974    11.3619 O.3     
  36 O36           -1.1648    -0.7006     0.0099 O.3     
  37 Cl37           1.2111     4.2896     6.7173 Cl      
  38 Cl38           1.1135     9.4154     4.9366 Cl      
  39 H39           -0.9590     1.9110     0.0170 H       
  40 H40            1.2312    -1.7587    -0.0188 H       
  41 H41            3.3426    -0.4933    -0.0325 H       
  42 H42            3.3047     1.9675    -0.0178 H       
  43 H43            2.0311     3.9736    -0.5099 H       
  44 H44            0.2514     3.9502    -0.4930 H       
  45 H45            1.1730     3.4425     2.1280 H       
  46 H46            1.1934     3.9132     3.8974 H       
  47 H47            1.1175     7.9623     2.4907 H       
  48 H48           -0.8371     7.3096     7.2649 H       
  49 H49            0.8425     8.6551     9.2387 H       
  50 H50           -2.1295     7.9726     9.3394 H       
  51 H51           -1.2663     9.1190    10.3924 H       
  52 H52           -0.8574     9.8952     7.7079 H       
  53 H53           -3.3725    14.3898     4.8767 H       
  54 H54           -1.0038    11.1827     6.4093 H       
  55 H55           -4.6990    12.2299     8.3147 H       
  56 H56           -0.4727    13.6447     4.7932 H       
  57 H57           -6.0189    13.8417     6.1618 H       
  58 H58            0.2980     6.2164    11.9231 H       
  59 H59           -1.5113    -0.8975    -0.8712 H       
@<TRIPOS>BOND
   1    1    2 ar
   2    1    6 ar
   3    1   39 1
   4    2    3 ar
   5    2   36 1
   6    3    4 ar
   7    3   40 1
   8    4    5 ar
   9    4   41 1
  10    5    6 ar
  11    5   42 1
  12    6    7 1
  13    7    8 1
  14    7   43 1
  15    7   44 1
  16    8    9 am
  17    8   45 1
  18    9   10 1
  19    9   11 2
  20   10   15 ar
  21   10   14 ar
  22   12   13 ar
  23   12   16 ar
  24   12   17 1
  25   13   14 ar
  26   13   37 1
  27   14   46 1
  28   15   16 ar
  29   15   47 1
  30   16   38 1
  31   17   18 am
  32   17   22 2
  33   18   19 1
  34   18   48 1
  35   19   20 1
  36   19   23 1
  37   19   49 1
  38   20   21 2
  39   20   35 1
  40   23   24 1
  41   23   50 1
  42   23   51 1
  43   24   25 am
  44   24   52 1
  45   25   26 1
  46   25   27 2
  47   26   31 ar
  48   26   30 ar
  49   28   29 ar
  50   28   32 ar
  51   28   53 1
  52   29   30 ar
  53   29   33 1
  54   30   54 1
  55   31   32 ar
  56   31   55 1
  57   32   34 1
  58   33   56 1
  59   34   57 1
  60   35   58 1
  61   36   59 1

#	End of record

