#	Name: ASD08070252
#	Creating user name:	WinNT
#	Creation time:	15. 06. 2019 21:14

#	Modifying user name:	WinNT
#	Modification time:	15. 06. 2019 21:14

#	Program:	/corina/corina34_cracker 3.40 0067  02.08.2006

@<TRIPOS>MOLECULE
ASD08070252
  38   40    0    0    0
SMALL
NO_CHARGES


@<TRIPOS>ATOM
   1 N1            -0.0084     1.3041    -0.5509 N.am    
   2 C2             0.0618    -0.0418    -0.5595 C.2     
   3 O3            -0.8772    -0.6970    -0.9686 O.2     
   4 N4             1.1728    -0.6615    -0.1144 N.am    
   5 C5             1.2043    -2.0572    -0.0172 C.ar    
   6 C6             2.3907    -2.7437    -0.2398 C.ar    
   7 C7             2.4184    -4.1211    -0.1431 C.ar    
   8 C8             1.0579     2.1201     0.0396 C.3     
   9 C9             0.0504    -2.7582     0.3076 C.ar    
  10 C10            0.0847    -4.1356     0.4028 C.ar    
  11 C11            1.2663    -4.8167     0.1745 C.ar    
  12 C12            1.3000    -6.3198     0.2787 C.3     
  13 C13            0.4522     3.2167     0.8792 C.ar    
  14 C14           -0.8926     3.5101     0.8491 C.ar    
  15 C15           -1.8753     2.7539    -0.0056 C.3     
  16 C16           -1.1557     2.0150    -1.1394 C.3     
  17 C17            1.2998     3.9443     1.7036 C.ar    
  18 C18            0.8064     4.9653     2.4893 C.ar    
  19 C19           -0.5427     5.2663     2.4545 C.ar    
  20 C20           -1.3861     4.5420     1.6385 C.ar    
  21 H21            1.9507    -0.1401     0.1385 H       
  22 H22            3.2907    -2.2010    -0.4885 H       
  23 H23            3.3408    -4.6556    -0.3161 H       
  24 H24            1.6911     1.4916     0.6657 H       
  25 H25            1.6590     2.5618    -0.7552 H       
  26 H26           -0.8728    -2.2268     0.4860 H       
  27 H27           -0.8123    -4.6814     0.6557 H       
  28 H28            1.0725    -6.7565    -0.6937 H       
  29 H29            2.2920    -6.6397     0.5976 H       
  30 H30            0.5599    -6.6501     1.0075 H       
  31 H31           -2.4081     2.0324     0.6137 H       
  32 H32           -2.5913     3.4551    -0.4343 H       
  33 H33           -0.8093     2.7309    -1.8848 H       
  34 H34           -1.8348     1.2990    -1.6024 H       
  35 H35            2.3536     3.7095     1.7298 H       
  36 H36            1.4709     5.5269     3.1292 H       
  37 H37           -0.9349     6.0664     3.0647 H       
  38 H38           -2.4394     4.7792     1.6121 H       
@<TRIPOS>BOND
   1    1    2 am
   2    1    8 1
   3    1   16 1
   4    2    3 2
   5    2    4 am
   6    4    5 1
   7    4   21 1
   8    5    6 ar
   9    5    9 ar
  10    6    7 ar
  11    6   22 1
  12    7   11 ar
  13    7   23 1
  14    8   13 1
  15    8   24 1
  16    8   25 1
  17    9   10 ar
  18    9   26 1
  19   10   11 ar
  20   10   27 1
  21   11   12 1
  22   12   28 1
  23   12   29 1
  24   12   30 1
  25   13   14 ar
  26   13   17 ar
  27   14   15 1
  28   14   20 ar
  29   15   16 1
  30   15   31 1
  31   15   32 1
  32   16   33 1
  33   16   34 1
  34   17   18 ar
  35   17   35 1
  36   18   19 ar
  37   18   36 1
  38   19   20 ar
  39   19   37 1
  40   20   38 1

#	End of record

