#	Name: ASD01120078
#	Creating user name:	WinNT
#	Creation time:	15. 06. 2019 18:58

#	Modifying user name:	WinNT
#	Modification time:	15. 06. 2019 18:58

#	Program:	/corina/corina34_cracker 3.40 0067  02.08.2006

@<TRIPOS>MOLECULE
ASD01120078
  37   40    0    0    0
SMALL
NO_CHARGES


@<TRIPOS>ATOM
   1 C1            -0.2611     1.9575     0.4616 C.ar    
   2 C2            -1.2992     2.5047    -0.2865 C.ar    
   3 C3            -1.0718     3.5225    -1.1650 C.ar    
   4 C4             0.2263     4.0271    -1.3180 C.ar    
   5 C5             1.2812     3.4690    -0.5553 C.ar    
   6 C6             1.0144     2.4252     0.3369 C.ar    
   7 N7             0.5046     5.0266    -2.1683 N.ar    
   8 C8             1.7313     5.4757    -2.2880 C.ar    
   9 N9             2.7485     4.9862    -1.5970 N.ar    
  10 C10            2.5842     3.9968    -0.7290 C.ar    
  11 N11            3.6528     3.4960    -0.0147 N.pl3   
  12 C12            4.9069     4.1055    -0.1137 C.ar    
  13 C13            4.9989     5.4751    -0.3109 C.ar    
  14 C14            6.2506     6.0777    -0.4089 C.ar    
  15 C15            7.4037     5.3011    -0.3082 C.ar    
  16 C16            7.3037     3.9380    -0.1119 C.ar    
  17 C17            6.0624     3.3398    -0.0088 C.ar    
  18 C18            6.3564     7.5423    -0.6203 C.2     
  19 C19            7.5371     8.1852    -0.7234 C.2     
  20 S20            7.2010     9.8973    -0.9671 S.3     
  21 C21            5.5209     9.5894    -0.9078 C.2     
  22 N22            5.2988     8.3332    -0.7301 N.2     
  23 C23            4.4495    10.6396    -1.0495 C.3     
  24 H24           -0.4689     1.1547     1.1535 H       
  25 H25           -2.3004     2.1169    -0.1698 H       
  26 H26           -1.8871     3.9369    -1.7394 H       
  27 H27            1.8120     1.9933     0.9232 H       
  28 H28            1.9199     6.2812    -2.9823 H       
  29 H29            3.5339     2.7209     0.5562 H       
  30 H30            4.1026     6.0725    -0.3886 H       
  31 H31            8.3758     5.7656    -0.3842 H       
  32 H32            8.1985     3.3381    -0.0345 H       
  33 H33            5.9896     2.2733     0.1452 H       
  34 H34            8.5153     7.7311    -0.6667 H       
  35 H35            4.9137    11.6150    -1.1947 H       
  36 H36            3.8217    10.4045    -1.9091 H       
  37 H37            3.8379    10.6589    -0.1474 H       
@<TRIPOS>BOND
   1    1    2 ar
   2    1    6 ar
   3    1   24 1
   4    2    3 ar
   5    2   25 1
   6    3    4 ar
   7    3   26 1
   8    4    5 ar
   9    4    7 ar
  10    5    6 ar
  11    5   10 ar
  12    6   27 1
  13    7    8 ar
  14    8    9 ar
  15    8   28 1
  16    9   10 ar
  17   10   11 1
  18   11   12 1
  19   11   29 1
  20   12   13 ar
  21   12   17 ar
  22   13   14 ar
  23   13   30 1
  24   14   15 ar
  25   14   18 1
  26   15   16 ar
  27   15   31 1
  28   16   17 ar
  29   16   32 1
  30   17   33 1
  31   18   19 2
  32   18   22 1
  33   19   20 1
  34   19   34 1
  35   20   21 1
  36   21   22 2
  37   21   23 1
  38   23   35 1
  39   23   36 1
  40   23   37 1

#	End of record

