#	Name: ASD05430319
#	Creating user name:	WinNT
#	Creation time:	15. 06. 2019 21:00

#	Modifying user name:	WinNT
#	Modification time:	15. 06. 2019 21:00

#	Program:	/corina/corina34_cracker 3.40 0067  02.08.2006

@<TRIPOS>MOLECULE
ASD05430319
  54   58    0    0    0
SMALL
NO_CHARGES


@<TRIPOS>ATOM
   1 N1            -0.0356     1.5297     0.0228 N.pl3   
   2 C2             1.4104     1.8766    -0.0013 C.3     
   3 O3             1.4199     3.2053    -0.5278 O.3     
   4 N4             0.0964     3.6933    -0.3725 N.2     
   5 C5            -0.7101     2.7295    -0.0319 C.2     
   6 C6             2.0543     1.7910     1.3585 C.ar    
   7 C7             1.3179     1.3612     2.4460 C.ar    
   8 C8             3.3846     2.1372     1.5173 C.ar    
   9 C9             3.9749     2.0584     2.7658 C.ar    
  10 C10            3.2357     1.6338     3.8540 C.ar    
  11 C11            1.9084     1.2830     3.6938 C.ar    
  12 C12           -2.1402     2.8981     0.2543 C.2     
  13 C13           -2.7036     4.1175     0.1724 C.2     
  14 C14           -4.1376     4.2866     0.4593 C.ar    
  15 C15           -4.9159     3.1811     0.8173 C.ar    
  16 C16           -4.7233     5.5536     0.3804 C.ar    
  17 C17           -6.0699     5.7068     0.6513 C.ar    
  18 C18           -6.8409     4.5992     1.0024 C.ar    
  19 C19           -6.2578     3.3413     1.0860 C.ar    
  20 N20           -8.2061     4.7565     1.2772 N.pl3   
  21 C21           -8.7608     5.6683     2.1173 C.2     
  22 N22          -10.0560     5.5064     2.1100 N.2     
  23 C23          -10.3735     4.5023     1.2794 C.2     
  24 C24           -9.2344     4.0231     0.7442 C.2     
  25 O25           -6.6427     6.9375     0.5759 O.3     
  26 C26           -5.7934     8.0272     0.2110 C.3     
  27 C27          -11.7650     4.0005     0.9909 C.3     
  28 C28           -0.0843     0.0645     0.0472 C.3     
  29 C29            1.1956    -0.4318    -0.6597 C.3     
  30 C30            1.9854     0.8565    -1.0052 C.3     
  31 Cl31           4.3124     2.6698     0.1501 Cl      
  32 H32            0.2808     1.0867     2.3213 H       
  33 H33            5.0132     2.3282     2.8903 H       
  34 H34            3.6966     1.5719     4.8288 H       
  35 H35            1.3312     0.9517     4.5443 H       
  36 H36           -2.7400     2.0435     0.5306 H       
  37 H37           -2.1038     4.9721    -0.1039 H       
  38 H38           -4.4653     2.2018     0.8827 H       
  39 H39           -4.1249     6.4107     0.1087 H       
  40 H40           -6.8586     2.4860     1.3579 H       
  41 H41           -8.2206     6.4038     2.6951 H       
  42 H42           -9.1472     3.2120     0.0364 H       
  43 H43           -5.3674     7.8415    -0.7750 H       
  44 H44           -6.3746     8.9490     0.1880 H       
  45 H45           -4.9901     8.1223     0.9417 H       
  46 H46          -12.1800     4.5472     0.1441 H       
  47 H47          -11.7258     2.9375     0.7531 H       
  48 H48          -12.3954     4.1540     1.8667 H       
  49 H49           -0.1036    -0.2913     1.0774 H       
  50 H50           -0.9665    -0.2887    -0.4867 H       
  51 H51            1.7774    -1.0650     0.0101 H       
  52 H52            0.9398    -0.9751    -1.5694 H       
  53 H53            1.7880     1.1686    -2.0307 H       
  54 H54            3.0533     0.7118    -0.8418 H       
@<TRIPOS>BOND
   1    1   28 1
   2    1    2 1
   3    1    5 1
   4    2    3 1
   5    2    6 1
   6    2   30 1
   7    3    4 1
   8    4    5 2
   9    5   12 1
  10    6    7 ar
  11    6    8 ar
  12    7   11 ar
  13    7   32 1
  14    8    9 ar
  15    8   31 1
  16    9   10 ar
  17    9   33 1
  18   10   11 ar
  19   10   34 1
  20   11   35 1
  21   12   13 2
  22   12   36 1
  23   13   14 1
  24   13   37 1
  25   14   15 ar
  26   14   16 ar
  27   15   19 ar
  28   15   38 1
  29   16   17 ar
  30   16   39 1
  31   17   18 ar
  32   17   25 1
  33   18   19 ar
  34   18   20 1
  35   19   40 1
  36   20   21 1
  37   20   24 1
  38   21   22 2
  39   21   41 1
  40   22   23 1
  41   23   24 2
  42   23   27 1
  43   24   42 1
  44   25   26 1
  45   26   43 1
  46   26   44 1
  47   26   45 1
  48   27   46 1
  49   27   47 1
  50   27   48 1
  51   28   29 1
  52   28   49 1
  53   28   50 1
  54   29   30 1
  55   29   51 1
  56   29   52 1
  57   30   53 1
  58   30   54 1

#	End of record

