#	Name: ASD01320151
#	Creating user name:	WinNT
#	Creation time:	15. 06. 2019 19:16

#	Modifying user name:	WinNT
#	Modification time:	15. 06. 2019 19:16

#	Program:	/corina/corina34_cracker 3.40 0067  02.08.2006

@<TRIPOS>MOLECULE
ASD01320151
  35   38    0    0    0
SMALL
NO_CHARGES


@<TRIPOS>ATOM
   1 Cl1           -6.2775    10.1303    -1.0337 Cl      
   2 C2            -0.0173     1.4248     0.0099 C.3     
   3 N3            -1.3474     3.2320    -1.0393 N.am    
   4 O4             0.0021    -0.0041     0.0020 O.3     
   5 S5            -3.9872     8.3927     0.0896 S.3     
   6 C6             1.3950     1.9693    -0.0007 C.ar    
   7 N7            -2.7455     5.7834    -0.5809 N.pl3   
   8 O8            -2.7171     2.9056    -2.7587 O.2     
   9 C9             1.7236     2.3912    -1.2752 C.ar    
  10 C10            2.9758     2.9289    -1.5220 C.ar    
  11 C11            3.8964     3.0448    -0.4990 C.ar    
  12 C12            3.5678     2.6226     0.7758 C.ar    
  13 C13            2.3195     2.0863     1.0239 C.ar    
  14 C14            0.5547     2.1590    -2.2084 C.3     
  15 C15           -0.6658     1.9587    -1.2850 C.3     
  16 C16           -2.3647     3.6164    -1.8355 C.2     
  17 C17           -3.0462     4.8895    -1.5899 C.2     
  18 C18           -4.0824     5.3896    -2.3176 C.2     
  19 C19           -4.4455     6.6403    -1.7467 C.2     
  20 C20           -3.6008     6.8558    -0.6751 C.2     
  21 C21           -5.2790     8.7103    -1.0528 C.2     
  22 C22           -5.3943     7.7303    -1.9284 C.2     
  23 H23           -0.5570     1.7903     0.8835 H       
  24 H24           -1.0666     3.7984    -0.3037 H       
  25 H25            0.4369    -0.3958     0.7718 H       
  26 H26           -2.0477     5.6729     0.0837 H       
  27 H27            3.2332     3.2589    -2.5176 H       
  28 H28            4.8720     3.4645    -0.6947 H       
  29 H29            4.2864     2.7126     1.5770 H       
  30 H30            2.0635     1.7571     2.0201 H       
  31 H31            0.4049     3.0271    -2.8503 H       
  32 H32            0.7234     1.2665    -2.8111 H       
  33 H33           -1.3559     1.2261    -1.7033 H       
  34 H34           -4.5450     4.9211    -3.1737 H       
  35 H35           -6.1325     7.7360    -2.7167 H       
@<TRIPOS>BOND
   1    1   21 1
   2    2    4 1
   3    2    6 1
   4    2   15 1
   5    2   23 1
   6    3   15 1
   7    3   16 am
   8    3   24 1
   9    4   25 1
  10    5   20 1
  11    5   21 1
  12    6    9 ar
  13    6   13 ar
  14    7   17 1
  15    7   20 1
  16    7   26 1
  17    8   16 2
  18    9   10 ar
  19    9   14 1
  20   10   11 ar
  21   10   27 1
  22   11   12 ar
  23   11   28 1
  24   12   13 ar
  25   12   29 1
  26   13   30 1
  27   14   15 1
  28   14   31 1
  29   14   32 1
  30   15   33 1
  31   16   17 1
  32   17   18 2
  33   18   19 1
  34   18   34 1
  35   19   20 2
  36   19   22 1
  37   21   22 2
  38   22   35 1

#	End of record

