#	Name: ASD08150018
#	Creating user name:	WinNT
#	Creation time:	15. 06. 2019 21:15

#	Modifying user name:	WinNT
#	Modification time:	15. 06. 2019 21:15

#	Program:	/corina/corina34_cracker 3.40 0067  02.08.2006

@<TRIPOS>MOLECULE
ASD08150018
  53   56    0    0    0
SMALL
NO_CHARGES


@<TRIPOS>ATOM
   1 N1            -0.0105     1.2950     0.1017 N.2     
   2 C2             0.0046    -0.0031     0.0804 C.2     
   3 N3             1.1442    -0.7356    -0.0219 N.am    
   4 C4             2.3496    -0.1261    -0.1086 C.2     
   5 C5             2.3677     1.3441    -0.0873 C.ar    
   6 C6             3.5554     2.0678    -0.1713 C.ar    
   7 C7             3.5144     3.4446    -0.1471 C.ar    
   8 C8             2.3019     4.1134    -0.0396 C.ar    
   9 C9             1.1174     3.4171     0.0450 C.ar    
  10 C10            1.1328     2.0209     0.0217 C.ar    
  11 O11            3.3785    -0.7699    -0.2002 O.2     
  12 C12           -1.3094    -0.7349     0.1744 C.3     
  13 S13           -2.6463     0.4569     0.4364 S.3     
  14 N14           -5.8626     1.0851     0.8742 N.2     
  15 C15           -7.1517     0.9798     1.0191 C.2     
  16 N16           -7.5222    -0.3303     0.9514 N.pl3   
  17 C17           -6.3839    -1.0699     0.7524 C.ar    
  18 N18           -6.1188    -2.3645     0.6098 N.ar    
  19 C19           -4.8832    -2.7805     0.4264 C.ar    
  20 N20           -3.8567    -1.9519     0.3740 N.ar    
  21 C21           -4.0240    -0.6393     0.5067 C.ar    
  22 C22           -5.3257    -0.1468     0.7049 C.ar    
  23 N23            1.0729    -2.0996    -0.0369 N.3     
  24 C24            1.7466    -2.6753     1.1362 C.3     
  25 C25            1.5915    -4.1982     1.1107 C.3     
  26 O26            2.1174    -4.7054    -0.1188 O.3     
  27 C27            1.4836    -4.1663    -1.2820 C.3     
  28 C28            1.6376    -2.6430    -1.2807 C.3     
  29 H29            4.5012     1.5532    -0.2543 H       
  30 H30            4.4331     4.0088    -0.2120 H       
  31 H31            2.2882     5.1932    -0.0219 H       
  32 H32            0.1806     3.9480     0.1283 H       
  33 H33           -1.4873    -1.2827    -0.7510 H       
  34 H34           -1.2770    -1.4340     1.0101 H       
  35 H35           -7.8280     1.8081     1.1706 H       
  36 H36           -8.4251    -0.6763     1.0297 H       
  37 H37           -4.7025    -3.8394     0.3144 H       
  38 H38            2.8053    -2.4168     1.1112 H       
  39 H39            1.2958    -2.2787     2.0459 H       
  40 H40            2.1378    -4.6337     1.9473 H       
  41 H41            0.5359    -4.4579     1.1897 H       
  42 H42            1.9518    -4.5787    -2.1757 H       
  43 H43            0.4248    -4.4250    -1.2725 H       
  44 H44            1.1072    -2.2229    -2.1353 H       
  45 H45            2.6945    -2.3840    -1.3443 H       
  46 C46           10.6727    12.0727     7.5784 C.2     
  47 C47           10.6931    10.5658     7.5701 C.3     
  48 O48           11.7107    12.6910     7.5718 O.2     
  49 O49            9.5012    12.7279     7.5875 O.3     
  50 H50           10.7079    10.1970     8.5957 H       
  51 H51            9.8033    10.1932     7.0627 H       
  52 H52           11.5830    10.2174     7.0459 H       
  53 H53            9.5387    13.6942     7.5926 H       
@<TRIPOS>BOND
   1    1    2 2
   2    1   10 1
   3    2    3 1
   4    2   12 1
   5    3    4 am
   6    3   23 1
   7    4    5 1
   8    4   11 2
   9    5    6 ar
  10    5   10 ar
  11    6    7 ar
  12    6   29 1
  13    7    8 ar
  14    7   30 1
  15    8    9 ar
  16    8   31 1
  17    9   10 ar
  18    9   32 1
  19   12   13 1
  20   12   33 1
  21   12   34 1
  22   13   21 1
  23   14   15 2
  24   14   22 1
  25   15   16 1
  26   15   35 1
  27   16   17 1
  28   16   36 1
  29   17   18 ar
  30   17   22 ar
  31   18   19 ar
  32   19   20 ar
  33   19   37 1
  34   20   21 ar
  35   21   22 ar
  36   23   24 1
  37   23   28 1
  38   24   25 1
  39   24   38 1
  40   24   39 1
  41   25   26 1
  42   25   40 1
  43   25   41 1
  44   26   27 1
  45   27   28 1
  46   27   42 1
  47   27   43 1
  48   28   44 1
  49   28   45 1
  50   46   47 1
  51   46   48 2
  52   46   49 1
  53   47   50 1
  54   47   51 1
  55   47   52 1
  56   49   53 1

#	End of record

