#	Name: ASD02560452
#	Creating user name:	WinNT
#	Creation time:	15. 06. 2019 20:25

#	Modifying user name:	WinNT
#	Modification time:	15. 06. 2019 20:25

#	Program:	/corina/corina34_cracker 3.40 0067  02.08.2006

@<TRIPOS>MOLECULE
ASD02560452
  36   38    0    0    0
SMALL
NO_CHARGES


@<TRIPOS>ATOM
   1 C1             0.9491    -1.2880    -4.1258 C.2     
   2 C2             1.4377    -2.4668    -3.5348 C.2     
   3 C3             2.2612    -2.4040    -2.4691 C.2     
   4 N4             2.6337    -1.1952    -1.9478 N.pl3   
   5 C5             2.1720    -0.0255    -2.5052 C.2     
   6 C6             1.3100    -0.0787    -3.6196 C.2     
   7 C7             3.4390    -0.8474    -0.8970 C.2     
   8 C8             3.4515     0.5085    -0.8361 C.2     
   9 N9             2.6789     0.9860    -1.8177 N.2     
  10 C10            4.2088     1.3370     0.1694 C.3     
  11 N11            4.1206    -1.7246    -0.0453 N.pl3   
  12 C12            3.4168    -2.7101     0.6508 C.ar    
  13 C13            5.6055     1.6465    -0.3731 C.3     
  14 C14            3.5914    -4.0497     0.3280 C.ar    
  15 C15            2.8942    -5.0218     1.0188 C.ar    
  16 C16            2.0230    -4.6631     2.0308 C.ar    
  17 C17            1.8459    -3.3302     2.3557 C.ar    
  18 C18            2.5437    -2.3528     1.6728 C.ar    
  19 C19            4.5402    -4.4423    -0.7750 C.3     
  20 Cl20           2.3216    -0.6802     2.0813 Cl      
  21 H21            0.2930    -1.3429    -4.9818 H       
  22 H22            1.1514    -3.4275    -3.9365 H       
  23 H23            2.6297    -3.3159    -2.0229 H       
  24 H24            0.9404     0.8320    -4.0671 H       
  25 H25            3.6738     2.2696     0.3485 H       
  26 H26            4.2966     0.7832     1.1041 H       
  27 H27            5.0817    -1.6482     0.0614 H       
  28 H28            5.5178     2.2003    -1.3079 H       
  29 H29            6.1533     2.2457     0.3541 H       
  30 H30            6.1406     0.7139    -0.5522 H       
  31 H31            3.0295    -6.0635     0.7678 H       
  32 H32            1.4791    -5.4255     2.5688 H       
  33 H33            1.1644    -3.0537     3.1465 H       
  34 H34            5.5351    -4.6013    -0.3591 H       
  35 H35            4.1912    -5.3621    -1.2442 H       
  36 H36            4.5806    -3.6472    -1.5196 H       
@<TRIPOS>BOND
   1    1    2 1
   2    1    6 2
   3    1   21 1
   4    2    3 2
   5    2   22 1
   6    3    4 1
   7    3   23 1
   8    4    5 1
   9    4    7 1
  10    5    6 1
  11    5    9 2
  12    6   24 1
  13    7    8 2
  14    7   11 1
  15    8    9 1
  16    8   10 1
  17   10   13 1
  18   10   25 1
  19   10   26 1
  20   11   12 1
  21   11   27 1
  22   12   14 ar
  23   12   18 ar
  24   13   28 1
  25   13   29 1
  26   13   30 1
  27   14   15 ar
  28   14   19 1
  29   15   16 ar
  30   15   31 1
  31   16   17 ar
  32   16   32 1
  33   17   18 ar
  34   17   33 1
  35   18   20 1
  36   19   34 1
  37   19   35 1
  38   19   36 1

#	End of record

