#	Name: ASD01230042
#	Creating user name:	WinNT
#	Creation time:	15. 06. 2019 19:11

#	Modifying user name:	WinNT
#	Modification time:	15. 06. 2019 19:11

#	Program:	/corina/corina34_cracker 3.40 0067  02.08.2006

@<TRIPOS>MOLECULE
ASD01230042
  21   22    0    0    0
SMALL
NO_CHARGES


@<TRIPOS>ATOM
   1 C1            -0.0167     1.3794     0.0096 C.ar    
   2 C2             0.0021    -0.0041     0.0020 C.ar    
   3 C3             1.2115    -0.6804    -0.0122 C.ar    
   4 C4             2.3908     0.0288    -0.0187 C.ar    
   5 C5             2.3810     1.4200    -0.0134 C.ar    
   6 C6             1.1659     2.0929     0.0022 C.ar    
   7 Cl7           -1.4893    -0.8925     0.0109 Cl      
   8 S8             3.9478    -0.8002    -0.0310 S.o2    
   9 N9             5.0771     0.3525     0.3515 N.am    
  10 C10            4.7842     1.6012     0.3146 C.2     
  11 N11            3.5818     2.1253    -0.0277 N.pl3   
  12 O12            3.9259    -1.7220     1.0503 O.2     
  13 O13            4.1952    -1.1804    -1.3776 O.2     
  14 C14            5.8751     2.5726     0.6852 C.3     
  15 H15           -0.9607     1.9040     0.0169 H       
  16 H16            1.2286    -1.7603    -0.0178 H       
  17 H17            1.1460     3.1727     0.0080 H       
  18 H18            3.5559     3.0556    -0.3012 H       
  19 H19            6.7817     2.0221     0.9369 H       
  20 H20            6.0741     3.2344    -0.1577 H       
  21 H21            5.5587     3.1638     1.5445 H       
@<TRIPOS>BOND
   1    1    2 ar
   2    1    6 ar
   3    1   15 1
   4    2    3 ar
   5    2    7 1
   6    3    4 ar
   7    3   16 1
   8    4    5 ar
   9    4    8 1
  10    5    6 ar
  11    5   11 1
  12    6   17 1
  13    8    9 am
  14    8   12 2
  15    8   13 2
  16    9   10 2
  17   10   11 1
  18   10   14 1
  19   11   18 1
  20   14   19 1
  21   14   20 1
  22   14   21 1

#	End of record

