#	Name: ASD07930295
#	Creating user name:	WinNT
#	Creation time:	15. 06. 2019 21:12

#	Modifying user name:	WinNT
#	Modification time:	15. 06. 2019 21:12

#	Program:	/corina/corina34_cracker 3.40 0067  02.08.2006

@<TRIPOS>MOLECULE
ASD07930295
  57   61    0    0    0
SMALL
NO_CHARGES


@<TRIPOS>ATOM
   1 C1             0.6217     0.5288    -0.3437 C.2     
   2 C2             0.9290    -0.8042    -0.3327 C.2     
   3 C3             2.3331    -1.2045    -0.2120 C.2     
   4 N4             3.2815    -0.2569    -0.1136 N.am    
   5 C5             2.9469     1.0783    -0.1289 C.2     
   6 C6             1.6496     1.4742    -0.2404 C.2     
   7 C7             4.6983    -0.6237     0.0150 C.3     
   8 C8             5.5212     0.3468    -0.8454 C.3     
   9 N9             5.2895     1.7139    -0.3577 N.am    
  10 C10            4.0295     2.0815    -0.0231 C.2     
  11 C11            6.4004     2.6611    -0.2360 C.3     
  12 O12            3.7929     3.2121     0.3564 O.2     
  13 O13            2.6382    -2.3850    -0.2006 O.2     
  14 N14           -0.0788    -1.7673    -0.4344 N.pl3   
  15 C15           -0.2560    -2.6468    -1.4551 C.2     
  16 N16           -1.3005    -3.3838    -1.1919 N.2     
  17 C17           -1.8224    -3.0107    -0.0137 C.2     
  18 C18           -1.0725    -2.0072     0.4799 C.2     
  19 C19           -3.0351    -3.6147     0.6463 C.3     
  20 C20            6.6434     3.3385    -1.5862 C.3     
  21 O21            5.4980     4.1150    -1.9426 O.3     
  22 C22            5.5026     4.6926    -3.1721 C.ar    
  23 C23            6.5404     4.4405    -4.0546 C.ar    
  24 C24            6.5440     5.0289    -5.3055 C.ar    
  25 C25            5.5141     5.8716    -5.6835 C.ar    
  26 C26            4.4740     6.1319    -4.8138 C.ar    
  27 C27            4.4571     5.5391    -3.5537 C.ar    
  28 C28            3.3417     5.8149    -2.6156 C.ar    
  29 C29            3.0284     7.1279    -2.2686 C.ar    
  30 C30            1.9899     7.3792    -1.3954 C.ar    
  31 C31            1.2599     6.3297    -0.8641 C.ar    
  32 C32            1.5671     5.0238    -1.2057 C.ar    
  33 C33            2.5998     4.7623    -2.0828 C.ar    
  34 Cl34          -0.0448     6.6525     0.2348 Cl      
  35 H35           -0.4054     0.8496    -0.4359 H       
  36 H36            1.4106     2.5274    -0.2493 H       
  37 H37            5.0063    -0.5435     1.0575 H       
  38 H38            4.8477    -1.6446    -0.3363 H       
  39 H39            6.5802     0.1027    -0.7616 H       
  40 H40            5.2061     0.2709    -1.8861 H       
  41 H41            6.1538     3.4164     0.5102 H       
  42 H42            7.3005     2.1281     0.0703 H       
  43 H43            0.3633    -2.7228    -2.3366 H       
  44 H44           -1.2279    -1.4865     1.4132 H       
  45 H45           -2.7264    -4.4404     1.2875 H       
  46 H46           -3.5373    -2.8563     1.2470 H       
  47 H47           -3.7187    -3.9841    -0.1181 H       
  48 H48            7.5153     3.9887    -1.5148 H       
  49 H49            6.8183     2.5784    -2.3477 H       
  50 H50            7.3475     3.7840    -3.7649 H       
  51 H51            7.3548     4.8299    -5.9907 H       
  52 H52            5.5240     6.3279    -6.6623 H       
  53 H53            3.6721     6.7909    -5.1120 H       
  54 H54            3.5978     7.9472    -2.6821 H       
  55 H55            1.7463     8.3963    -1.1259 H       
  56 H56            0.9946     4.2085    -0.7884 H       
  57 H57            2.8384     3.7432    -2.3490 H       
@<TRIPOS>BOND
   1    1    2 2
   2    1    6 1
   3    1   35 1
   4    2    3 1
   5    2   14 1
   6    3    4 am
   7    3   13 2
   8    4    5 1
   9    4    7 1
  10    5    6 2
  11    5   10 1
  12    6   36 1
  13    7    8 1
  14    7   37 1
  15    7   38 1
  16    8    9 1
  17    8   39 1
  18    8   40 1
  19    9   10 am
  20    9   11 1
  21   10   12 2
  22   11   20 1
  23   11   41 1
  24   11   42 1
  25   14   15 1
  26   14   18 1
  27   15   16 2
  28   15   43 1
  29   16   17 1
  30   17   18 2
  31   17   19 1
  32   18   44 1
  33   19   45 1
  34   19   46 1
  35   19   47 1
  36   20   21 1
  37   20   48 1
  38   20   49 1
  39   21   22 1
  40   22   23 ar
  41   22   27 ar
  42   23   24 ar
  43   23   50 1
  44   24   25 ar
  45   24   51 1
  46   25   26 ar
  47   25   52 1
  48   26   27 ar
  49   26   53 1
  50   27   28 1
  51   28   29 ar
  52   28   33 ar
  53   29   30 ar
  54   29   54 1
  55   30   31 ar
  56   30   55 1
  57   31   32 ar
  58   31   34 1
  59   32   33 ar
  60   32   56 1
  61   33   57 1

#	End of record

