#	Name: ASD05570001
#	Creating user name:	WinNT
#	Creation time:	15. 06. 2019 21:01

#	Modifying user name:	WinNT
#	Modification time:	15. 06. 2019 21:01

#	Program:	/corina/corina34_cracker 3.40 0067  02.08.2006

@<TRIPOS>MOLECULE
ASD05570001
  45   49    0    0    0
SMALL
NO_CHARGES


@<TRIPOS>ATOM
   1 O1            -0.0702     1.4408     0.0388 O.3     
   2 C2            -0.0342     0.0123     0.0299 C.3     
   3 C3            -1.4556    -0.5648     0.0151 C.3     
   4 O4            -1.9144    -1.0512     1.2800 O.3     
   5 P5            -3.2803    -1.9440     1.2680 P.3     
   6 O6            -3.3348    -2.8010     2.4735 O.2     
   7 O7            -4.5680    -0.9788     1.2212 O.3     
   8 O8            -3.2275    -2.8668    -0.0665 O.3     
   9 C9            -2.6132    -2.3631    -1.2771 C.3     
  10 C10           -1.2557    -1.8160    -0.8825 C.3     
  11 O11           -0.4345    -1.3242    -1.9386 O.3     
  12 C12            0.5766    -0.5108    -1.2944 C.3     
  13 N13            0.9345     0.6169    -2.1584 N.pl3   
  14 C14            0.0655     1.4068    -2.8613 C.2     
  15 S15           -1.6873     1.2271    -2.8709 S.3     
  16 C16           -2.1343     2.6380    -3.8270 C.ar    
  17 C17           -2.1616     2.5588    -5.2138 C.ar    
  18 C18           -2.5122     3.6661    -5.9605 C.ar    
  19 C19           -2.8364     4.8541    -5.3287 C.ar    
  20 C20           -2.8101     4.9359    -3.9474 C.ar    
  21 C21           -2.4657     3.8302    -3.1953 C.ar    
  22 Cl22          -3.2762     6.2443    -6.2707 Cl      
  23 N23            0.7339     2.3173    -3.5257 N.2     
  24 C24            2.0606     2.1645    -3.2887 C.ar    
  25 C25            2.2055     1.0805    -2.4078 C.ar    
  26 N26            3.4244     0.7243    -2.0170 N.ar    
  27 C27            4.4845     1.3759    -2.4474 C.ar    
  28 N28            4.3980     2.4007    -3.2757 N.ar    
  29 C29            3.2205     2.8312    -3.7167 C.ar    
  30 N30            3.1395     3.9074    -4.5857 N.pl3   
  31 H31            0.8030     1.8562     0.0482 H       
  32 H32            0.5239    -0.3623     0.8880 H       
  33 H33           -2.1647     0.1421    -0.4156 H       
  34 H34           -5.4125    -1.4497     1.2122 H       
  35 H35           -2.4940    -3.1712    -1.9988 H       
  36 H36           -3.2258    -1.5686    -1.7032 H       
  37 H37           -0.7027    -2.5758    -0.3303 H       
  38 H38            1.4593    -1.1144    -1.0831 H       
  39 H39           -1.9084     1.6321    -5.7073 H       
  40 H40           -2.5332     3.6052    -7.0386 H       
  41 H41           -3.0631     5.8643    -3.4571 H       
  42 H42           -2.4457     3.8945    -2.1174 H       
  43 H43            5.4610     1.0609    -2.1101 H       
  44 H44            3.9481     4.3557    -4.8792 H       
  45 H45            2.2743     4.2124    -4.9006 H       
@<TRIPOS>BOND
   1    1    2 1
   2    1   31 1
   3    2    3 1
   4    2   12 1
   5    2   32 1
   6    3    4 1
   7    3   10 1
   8    3   33 1
   9    4    5 1
  10    5    6 2
  11    5    7 1
  12    5    8 1
  13    7   34 1
  14    8    9 1
  15    9   10 1
  16    9   35 1
  17    9   36 1
  18   10   11 1
  19   10   37 1
  20   11   12 1
  21   12   13 1
  22   12   38 1
  23   13   14 1
  24   13   25 1
  25   14   15 1
  26   14   23 2
  27   15   16 1
  28   16   17 ar
  29   16   21 ar
  30   17   18 ar
  31   17   39 1
  32   18   19 ar
  33   18   40 1
  34   19   20 ar
  35   19   22 1
  36   20   21 ar
  37   20   41 1
  38   21   42 1
  39   23   24 1
  40   24   25 ar
  41   24   29 ar
  42   25   26 ar
  43   26   27 ar
  44   27   28 ar
  45   27   43 1
  46   28   29 ar
  47   29   30 1
  48   30   44 1
  49   30   45 1

#	End of record

