#	Name: ASD07060002
#	Creating user name:	WinNT
#	Creation time:	15. 06. 2019 21:08

#	Modifying user name:	WinNT
#	Modification time:	15. 06. 2019 21:08

#	Program:	/corina/corina34_cracker 3.40 0067  02.08.2006

@<TRIPOS>MOLECULE
ASD07060002
  43   45    0    0    0
SMALL
NO_CHARGES


@<TRIPOS>ATOM
   1 C1            -0.0299     1.3896    -0.0374 C.ar    
   2 C2            -0.0197     0.0038    -0.0634 C.ar    
   3 C3             1.1745    -0.6876    -0.0684 C.ar    
   4 C4             2.3769     0.0049    -0.0473 C.ar    
   5 C5             2.3781     1.4077    -0.0210 C.ar    
   6 C6             1.1580     2.0984    -0.0162 C.ar    
   7 N7             1.1419     3.4977     0.0095 N.am    
   8 C8             0.0769     4.1502     0.5160 C.2     
   9 C9             0.0971     5.6529     0.6276 C.3     
  10 O10           -0.8977     3.5279     0.8821 O.2     
  11 N11            3.7071    -0.3817    -0.0465 N.pl3   
  12 C12            4.4600     0.7576    -0.0205 C.2     
  13 N13            3.6774     1.8072    -0.0056 N.2     
  14 N14            5.8393     0.7966    -0.0109 N.pl3   
  15 C15            9.7922    -0.8788    -2.0109 C.ar    
  16 C16            8.5409    -1.1152    -1.4735 C.ar    
  17 C17            7.9712    -0.1923    -0.6162 C.ar    
  18 C18            8.6521     0.9676    -0.2978 C.ar    
  19 C19            9.9032     1.2047    -0.8363 C.ar    
  20 C20           10.4756     0.2790    -1.6882 C.ar    
  21 C21            6.6075    -0.4507    -0.0291 C.3     
  22 C22            6.7586    -0.9775     1.3994 C.3     
  23 C23           10.4132    -1.8847    -2.9454 C.3     
  24 F24           10.0486    -1.5849    -4.2624 F       
  25 F25           11.8061    -1.8357    -2.8245 F       
  26 F26            9.9614    -3.1674    -2.6170 F       
  27 H27           -0.9710     1.9194    -0.0383 H       
  28 H28           -0.9533    -0.5388    -0.0794 H       
  29 H29            1.1733    -1.7674    -0.0883 H       
  30 H30            1.8972     3.9979    -0.3373 H       
  31 H31            1.0475     6.0324     0.2524 H       
  32 H32           -0.7192     6.0719     0.0391 H       
  33 H33           -0.0225     5.9414     1.6719 H       
  34 H34            4.0416    -1.2921    -0.0615 H       
  35 H35            6.3002     1.6499     0.0079 H       
  36 H36            8.0081    -2.0206    -1.7237 H       
  37 H37            8.2067     1.6889     0.3714 H       
  38 H38           10.4351     2.1112    -0.5878 H       
  39 H39           11.4529     0.4642    -2.1089 H       
  40 H40            6.0850    -1.1904    -0.6358 H       
  41 H41            7.3302    -1.9055     1.3858 H       
  42 H42            7.2811    -0.2378     2.0060 H       
  43 H43            5.7723    -1.1644     1.8239 H       
@<TRIPOS>BOND
   1    1    2 ar
   2    1    6 ar
   3    1   27 1
   4    2    3 ar
   5    2   28 1
   6    3    4 ar
   7    3   29 1
   8    4    5 ar
   9    4   11 1
  10    5    6 ar
  11    5   13 1
  12    6    7 1
  13    7    8 am
  14    7   30 1
  15    8    9 1
  16    8   10 2
  17    9   31 1
  18    9   32 1
  19    9   33 1
  20   11   12 1
  21   11   34 1
  22   12   13 2
  23   12   14 1
  24   14   21 1
  25   14   35 1
  26   15   16 ar
  27   15   23 1
  28   15   20 ar
  29   16   17 ar
  30   16   36 1
  31   17   18 ar
  32   17   21 1
  33   18   19 ar
  34   18   37 1
  35   19   20 ar
  36   19   38 1
  37   20   39 1
  38   21   22 1
  39   21   40 1
  40   22   41 1
  41   22   42 1
  42   22   43 1
  43   23   24 1
  44   23   25 1
  45   23   26 1

#	End of record

