#	Name: ASD03430441
#	Creating user name:	WinNT
#	Creation time:	15. 06. 2019 20:41

#	Modifying user name:	WinNT
#	Modification time:	15. 06. 2019 20:41

#	Program:	/corina/corina34_cracker 3.40 0067  02.08.2006

@<TRIPOS>MOLECULE
ASD03430441
  57   62    0    0    0
SMALL
NO_CHARGES


@<TRIPOS>ATOM
   1 N1            -0.1304     1.3368     0.5326 N.am    
   2 C2            -0.2237     0.0294     0.8285 C.2     
   3 C3             1.1387    -0.4153     1.3164 C.3     
   4 C4             1.9822     0.8366     1.2426 C.ar    
   5 C5             3.3003     1.0966     1.5447 C.ar    
   6 C6             3.8098     2.3717     1.3723 C.ar    
   7 C7             2.9923     3.3808     0.8968 C.ar    
   8 C8             1.6706     3.1234     0.5935 C.ar    
   9 C9             1.1506     1.8406     0.7644 C.ar    
  10 O10           -1.2135    -0.6640     0.7246 O.2     
  11 O11            0.8868    -2.4789     6.5563 O.3     
  12 C12            1.7566    -3.6212     6.4828 C.3     
  13 C13            1.7167    -3.9865     4.9800 C.3     
  14 C14            1.3649    -2.6555     4.3436 C.ar    
  15 C15            0.8917    -1.8322     5.3583 C.ar    
  16 C16            0.5058    -0.5323     5.0456 C.ar    
  17 C17            0.5874    -0.0764     3.7408 C.ar    
  18 C18            1.0545    -0.9123     2.7366 C.ar    
  19 C19            1.4422    -2.2035     3.0447 C.ar    
  20 O20            0.2080     1.1940     3.4424 O.3     
  21 O21            1.6706    -1.4287     0.4608 O.3     
  22 C22           -1.2433     2.1396     0.0198 C.3     
  23 C23           -0.9636     2.5320    -1.4081 C.ar    
  24 C24           -1.4753     3.7126    -1.9134 C.ar    
  25 C25           -1.2187     4.0724    -3.2232 C.ar    
  26 C26           -0.4501     3.2520    -4.0276 C.ar    
  27 C27            0.0624     2.0719    -3.5220 C.ar    
  28 C28           -0.1906     1.7141    -2.2109 C.ar    
  29 C29           -2.5143     1.3322     0.0790 C.ar    
  30 C30           -3.5065     1.6701     0.9803 C.ar    
  31 C31           -4.6724     0.9294     1.0347 C.ar    
  32 C32           -4.8463    -0.1490     0.1875 C.ar    
  33 C33           -3.8545    -0.4864    -0.7143 C.ar    
  34 C34           -2.6904     0.2569    -0.7717 C.ar    
  35 Cl35           0.6539     4.3982    -0.0021 Cl      
  36 H36            3.9358     0.3063     1.9161 H       
  37 H37            4.8431     2.5783     1.6089 H       
  38 H38            3.3902     4.3758     0.7624 H       
  39 H39            2.7686    -3.3562     6.7890 H       
  40 H40            1.3704    -4.4402     7.0896 H       
  41 H41            2.6908    -4.3364     4.6381 H       
  42 H42            0.9451    -4.7300     4.7802 H       
  43 H43            0.1416     0.1229     5.8230 H       
  44 H44            1.8065    -2.8578     2.2665 H       
  45 H45            0.9221     1.8429     3.5059 H       
  46 H46            1.1352    -2.2330     0.4236 H       
  47 H47           -1.3544     3.0372     0.6281 H       
  48 H48           -2.0758     4.3535    -1.2850 H       
  49 H49           -1.6191     4.9944    -3.6182 H       
  50 H50           -0.2502     3.5328    -5.0511 H       
  51 H51            0.6626     1.4307    -4.1505 H       
  52 H52            0.2129     0.7939    -1.8148 H       
  53 H53           -3.3707     2.5127     1.6421 H       
  54 H54           -5.4473     1.1931     1.7393 H       
  55 H55           -5.7569    -0.7281     0.2305 H       
  56 H56           -3.9902    -1.3292    -1.3760 H       
  57 H57           -1.9171    -0.0044    -1.4789 H       
@<TRIPOS>BOND
   1    1    2 am
   2    1    9 1
   3    1   22 1
   4    2    3 1
   5    2   10 2
   6    3    4 1
   7    3   18 1
   8    3   21 1
   9    4    5 ar
  10    4    9 ar
  11    5    6 ar
  12    5   36 1
  13    6    7 ar
  14    6   37 1
  15    7    8 ar
  16    7   38 1
  17    8    9 ar
  18    8   35 1
  19   11   12 1
  20   11   15 1
  21   12   13 1
  22   12   39 1
  23   12   40 1
  24   13   14 1
  25   13   41 1
  26   13   42 1
  27   14   15 ar
  28   14   19 ar
  29   15   16 ar
  30   16   17 ar
  31   16   43 1
  32   17   18 ar
  33   17   20 1
  34   18   19 ar
  35   19   44 1
  36   20   45 1
  37   21   46 1
  38   22   23 1
  39   22   29 1
  40   22   47 1
  41   23   24 ar
  42   23   28 ar
  43   24   25 ar
  44   24   48 1
  45   25   26 ar
  46   25   49 1
  47   26   27 ar
  48   26   50 1
  49   27   28 ar
  50   27   51 1
  51   28   52 1
  52   29   30 ar
  53   29   34 ar
  54   30   31 ar
  55   30   53 1
  56   31   32 ar
  57   31   54 1
  58   32   33 ar
  59   32   55 1
  60   33   34 ar
  61   33   56 1
  62   34   57 1

#	End of record

