#	Name: ASD00122095
#	Creating user name:	WinNT
#	Creation time:	15. 06. 2019 18:31

#	Modifying user name:	WinNT
#	Modification time:	15. 06. 2019 18:31

#	Program:	/corina/corina34_cracker 3.40 0067  02.08.2006

@<TRIPOS>MOLECULE
ASD00122095
  31   31    0    0    0
SMALL
NO_CHARGES


@<TRIPOS>ATOM
   1 C1            -0.0200     1.5265    -0.0139 C.3     
   2 C2             0.0017    -0.0033    -0.0065 C.3     
   3 C3             0.7446    -0.4968     1.2366 C.3     
   4 C4             2.1797     0.0335     1.2172 C.3     
   5 C5             2.1580     1.5633     1.2098 C.3     
   6 C6             1.4150     2.0568    -0.0333 C.3     
   7 C7             1.4442     2.0693     2.4650 C.3     
   8 C8            -1.4333    -0.5336     0.0129 C.3     
   9 C9            -1.4157    -2.0577    -0.1212 C.3     
  10 C10           -2.1027    -0.1455     1.3328 C.3     
  11 O11           -0.7139     1.9874    -1.1750 O.3     
  12 H12           -0.5285     1.8870     0.8803 H       
  13 H13            0.5102    -0.3638    -0.9007 H       
  14 H14            0.2361    -0.1363     2.1308 H       
  15 H15            0.7601    -1.5867     1.2419 H       
  16 H16            2.7089    -0.3181     2.1029 H       
  17 H17            2.6882    -0.3270     0.3231 H       
  18 H18            3.1803     1.9411     1.1960 H       
  19 H19            1.9235     1.6964    -0.9275 H       
  20 H20            1.3996     3.1467    -0.0386 H       
  21 H21            1.9734     1.7178     3.3506 H       
  22 H22            1.4287     3.1592     2.4597 H       
  23 H23            0.4218     1.6915     2.4788 H       
  24 H24           -1.9914    -0.1022    -0.8181 H       
  25 H25           -2.4308    -2.4427    -0.0245 H       
  26 H26           -1.0145    -2.3319    -1.0969 H       
  27 H27           -0.7891    -2.4841     0.6622 H       
  28 H28           -2.1152     0.9402     1.4283 H       
  29 H29           -3.1250    -0.5233     1.3466 H       
  30 H30           -1.5446    -0.5769     2.1638 H       
  31 H31           -0.7665     2.9504    -1.2453 H       
@<TRIPOS>BOND
   1    1    2 1
   2    1    6 1
   3    1   11 1
   4    1   12 1
   5    2    3 1
   6    2    8 1
   7    2   13 1
   8    3    4 1
   9    3   14 1
  10    3   15 1
  11    4    5 1
  12    4   16 1
  13    4   17 1
  14    5    6 1
  15    5    7 1
  16    5   18 1
  17    6   19 1
  18    6   20 1
  19    7   21 1
  20    7   22 1
  21    7   23 1
  22    8    9 1
  23    8   10 1
  24    8   24 1
  25    9   25 1
  26    9   26 1
  27    9   27 1
  28   10   28 1
  29   10   29 1
  30   10   30 1
  31   11   31 1

#	End of record

