#	Name: ASD08150510
#	Creating user name:	WinNT
#	Creation time:	15. 06. 2019 21:16

#	Modifying user name:	WinNT
#	Modification time:	15. 06. 2019 21:16

#	Program:	/corina/corina34_cracker 3.40 0067  02.08.2006

@<TRIPOS>MOLECULE
ASD08150510
  68   73    0    0    0
SMALL
NO_CHARGES


@<TRIPOS>ATOM
   1 N1            -1.2246     0.3865    -0.7097 N.am    
   2 C2            -0.8013    -0.2404     0.4051 C.2     
   3 C3             0.1066    -1.3161     0.3300 C.2     
   4 C4             0.5688    -1.7370    -0.8749 C.2     
   5 C5             0.1253    -1.0800    -2.0497 C.ar    
   6 C6             0.5731    -1.4770    -3.3242 C.ar    
   7 N7             0.1620    -0.8694    -4.4064 N.ar    
   8 C8            -0.7013     0.1570    -4.3691 C.ar    
   9 C9            -1.2044     0.6237    -3.1297 C.ar    
  10 C10           -0.7787    -0.0121    -1.9398 C.ar    
  11 C11           -2.1033     1.6944    -3.1017 C.ar    
  12 C12           -2.4933     2.2889    -4.2906 C.ar    
  13 C13           -1.9913     1.8217    -5.5131 C.ar    
  14 C14           -1.1164     0.7814    -5.5568 C.ar    
  15 O15           -1.2088     0.1278     1.4937 O.2     
  16 C16           -3.4470     3.4251    -4.2698 C.ar    
  17 C17           -2.1315     1.4496    -0.6088 C.ar    
  18 C18           -3.4967     1.2087    -0.6980 C.ar    
  19 C19           -4.3902     2.2557    -0.5982 C.ar    
  20 C20           -3.9242     3.5508    -0.4084 C.ar    
  21 C21           -2.5592     3.7916    -0.3192 C.ar    
  22 C22           -1.6659     2.7433    -0.4138 C.ar    
  23 N23           -4.8292     4.6116    -0.3077 N.3     
  24 C24           -4.9610     5.0610     1.0852 C.3     
  25 C25           -6.1378     4.2422    -0.8650 C.3     
  26 C26           -7.0734     5.4521    -0.8085 C.3     
  27 N27           -7.2052     5.9015     0.5845 N.3     
  28 C28           -5.8966     6.2710     1.1417 C.3     
  29 C29           -4.5627     3.4152    -5.1039 C.ar    
  30 C30           -5.4516     4.4778    -5.0822 C.ar    
  31 C31           -5.2311     5.5511    -4.2314 C.ar    
  32 C32           -4.1211     5.5640    -3.3996 C.ar    
  33 C33           -3.2318     4.5015    -3.4121 C.ar    
  34 C34           -2.0535     5.1962    -0.1134 C.3     
  35 F35           -0.6999     5.2602    -0.4611 F       
  36 F36           -2.7839     6.0773    -0.9181 F       
  37 F37           -2.2074     5.5551     1.2300 F       
  38 O38           -6.5403     4.4689    -5.8956 O.3     
  39 C39           -7.4147     5.5967    -5.8214 C.3     
  40 O40           -3.9086     6.6172    -2.5675 O.3     
  41 C41           -4.8989     7.6474    -2.5590 C.3     
  42 H42            0.4358    -1.8066     1.2341 H       
  43 H43            1.2648    -2.5605    -0.9374 H       
  44 H44            1.2694    -2.2982    -3.4094 H       
  45 H45           -2.4909     2.0548    -2.1603 H       
  46 H46           -2.3035     2.2942    -6.4327 H       
  47 H47           -0.7393     0.4346    -6.5075 H       
  48 H48           -3.8588     0.2020    -0.8459 H       
  49 H49           -5.4515     2.0684    -0.6679 H       
  50 H50           -0.6047     2.9299    -0.3403 H       
  51 H51           -5.3737     4.2537     1.6902 H       
  52 H52           -3.9809     5.3408     1.4714 H       
  53 H53           -6.0157     3.9250    -1.9007 H       
  54 H54           -6.5639     3.4255    -0.2821 H       
  55 H55           -6.6608     6.2594    -1.4135 H       
  56 H56           -8.0535     5.1723    -1.1946 H       
  57 H57           -7.8584     6.6671     0.6571 H       
  58 H58           -6.0188     6.5881     2.1774 H       
  59 H59           -5.4706     7.0876     0.5588 H       
  60 H60           -4.7345     2.5802    -5.7670 H       
  61 H61           -5.9250     6.3785    -4.2168 H       
  62 H62           -2.3677     4.5121    -2.7643 H       
  63 H63           -6.8638     6.5012    -6.0794 H       
  64 H64           -8.2406     5.4626    -6.5201 H       
  65 H65           -7.8068     5.6865    -4.8084 H       
  66 H66           -4.5725     8.4599    -1.9099 H       
  67 H67           -5.0388     8.0253    -3.5718 H       
  68 H68           -5.8409     7.2427    -2.1889 H       
@<TRIPOS>BOND
   1    1    2 am
   2    1   10 1
   3    1   17 1
   4    2    3 1
   5    2   15 2
   6    3    4 2
   7    3   42 1
   8    4    5 1
   9    4   43 1
  10    5    6 ar
  11    5   10 ar
  12    6    7 ar
  13    6   44 1
  14    7    8 ar
  15    8    9 ar
  16    8   14 ar
  17    9   10 ar
  18    9   11 ar
  19   11   12 ar
  20   11   45 1
  21   12   13 ar
  22   12   16 1
  23   13   14 ar
  24   13   46 1
  25   14   47 1
  26   16   29 ar
  27   16   33 ar
  28   17   18 ar
  29   17   22 ar
  30   18   19 ar
  31   18   48 1
  32   19   20 ar
  33   19   49 1
  34   20   21 ar
  35   20   23 1
  36   21   22 ar
  37   21   34 1
  38   22   50 1
  39   23   24 1
  40   23   25 1
  41   24   28 1
  42   24   51 1
  43   24   52 1
  44   25   26 1
  45   25   53 1
  46   25   54 1
  47   26   27 1
  48   26   55 1
  49   26   56 1
  50   27   28 1
  51   27   57 1
  52   28   58 1
  53   28   59 1
  54   29   30 ar
  55   29   60 1
  56   30   31 ar
  57   30   38 1
  58   31   32 ar
  59   31   61 1
  60   32   33 ar
  61   32   40 1
  62   33   62 1
  63   34   35 1
  64   34   36 1
  65   34   37 1
  66   38   39 1
  67   39   63 1
  68   39   64 1
  69   39   65 1
  70   40   41 1
  71   41   66 1
  72   41   67 1
  73   41   68 1

#	End of record

