#	Name: ASD09890055
#	Creating user name:	WinNT
#	Creation time:	15. 06. 2019 21:24

#	Modifying user name:	WinNT
#	Modification time:	15. 06. 2019 21:24

#	Program:	/corina/corina34_cracker 3.40 0067  02.08.2006

@<TRIPOS>MOLECULE
ASD09890055
  47   50    0    0    0
SMALL
NO_CHARGES


@<TRIPOS>ATOM
   1 C1            -0.0167     1.3794     0.0096 C.ar    
   2 C2             0.0021    -0.0041     0.0020 C.ar    
   3 C3             1.2080    -0.6822    -0.0132 C.ar    
   4 C4             2.3969     0.0205    -0.0204 C.ar    
   5 C5             2.3812     1.4094    -0.0127 C.ar    
   6 C6             1.1690     2.0875     0.0021 C.ar    
   7 C7             4.9786     4.1079    -0.0211 C.2     
   8 N8             5.7309     4.3940    -1.1295 N.pl3   
   9 C9             6.9360     4.8334    -0.6539 C.2     
  10 N10            6.8676     4.7973     0.6568 N.2     
  11 N11            5.7108     4.3742     1.0233 N.2     
  12 S12            8.3181     5.3491    -1.6175 S.3     
  13 C13            9.4833     5.7673    -0.2971 C.3     
  14 C14            5.3463     4.2630    -2.4718 C.ar    
  15 C15            5.2347     5.3888    -3.2763 C.ar    
  16 C16            4.8562     5.2566    -4.5981 C.ar    
  17 C17            4.5885     4.0045    -5.1201 C.ar    
  18 C18            4.6988     2.8813    -4.3212 C.ar    
  19 C19            5.0821     3.0068    -3.0001 C.ar    
  20 Br20          -1.6236    -0.9699     0.0130 Br      
  21 C21            3.5642     3.5879    -0.0115 C.3     
  22 N22            3.5824     2.1230    -0.0195 N.pl3   
  23 C23           10.8497     6.1402    -0.8986 C.3     
  24 C24           11.1359     7.5953    -0.4737 C.3     
  25 C25           10.2807     7.7936     0.8024 C.3     
  26 C26            8.9868     7.0089     0.4721 C.3     
  27 H27           -0.9595     1.9061     0.0170 H       
  28 H28            1.2196    -1.7621    -0.0191 H       
  29 H29            3.3379    -0.5094    -0.0315 H       
  30 H30            1.1537     3.1673     0.0077 H       
  31 H31            9.5930     4.9239     0.3846 H       
  32 H32            5.4433     6.3670    -2.8690 H       
  33 H33            4.7689     6.1322    -5.2243 H       
  34 H34            4.2924     3.9036    -6.1538 H       
  35 H35            4.4891     1.9046    -4.7316 H       
  36 H36            5.1683     2.1292    -2.3766 H       
  37 H37            3.0537     3.9400     0.8850 H       
  38 H38            3.0380     3.9496    -0.8949 H       
  39 H39            4.4284     1.6486    -0.0295 H       
  40 H40           11.6227     5.4783    -0.5080 H       
  41 H41           10.8111     6.0693    -1.9856 H       
  42 H42           12.1942     7.7256    -0.2478 H       
  43 H43           10.8232     8.2891    -1.2541 H       
  44 H44           10.7801     7.3667     1.6722 H       
  45 H45           10.0623     8.8497     0.9607 H       
  46 H46            8.3271     7.6079    -0.1555 H       
  47 H47            8.4768     6.7113     1.3883 H       
@<TRIPOS>BOND
   1    1    2 ar
   2    1    6 ar
   3    1   27 1
   4    2    3 ar
   5    2   20 1
   6    3    4 ar
   7    3   28 1
   8    4    5 ar
   9    4   29 1
  10    5    6 ar
  11    5   22 1
  12    6   30 1
  13    7    8 1
  14    7   21 1
  15    7   11 2
  16    8    9 1
  17    8   14 1
  18    9   10 2
  19    9   12 1
  20   10   11 1
  21   12   13 1
  22   13   23 1
  23   13   26 1
  24   13   31 1
  25   14   15 ar
  26   14   19 ar
  27   15   16 ar
  28   15   32 1
  29   16   17 ar
  30   16   33 1
  31   17   18 ar
  32   17   34 1
  33   18   19 ar
  34   18   35 1
  35   19   36 1
  36   21   22 1
  37   21   37 1
  38   21   38 1
  39   22   39 1
  40   23   24 1
  41   23   40 1
  42   23   41 1
  43   24   25 1
  44   24   42 1
  45   24   43 1
  46   25   26 1
  47   25   44 1
  48   25   45 1
  49   26   46 1
  50   26   47 1

#	End of record

