#	Name: ASD01708030
#	Creating user name:	WinNT
#	Creation time:	15. 06. 2019 19:22

#	Modifying user name:	WinNT
#	Modification time:	15. 06. 2019 19:22

#	Program:	/corina/corina34_cracker 3.40 0067  02.08.2006

@<TRIPOS>MOLECULE
ASD01708030
  62   66    0    0    0
SMALL
NO_CHARGES


@<TRIPOS>ATOM
   1 C1             0.1464     1.4009    -0.5552 C.ar    
   2 C2             0.1628     0.0109    -0.5815 C.ar    
   3 C3             1.1914     2.0762     0.0649 C.ar    
   4 C4             2.2402     1.3890     0.6391 C.ar    
   5 C5             2.2632     0.0090     0.6119 C.ar    
   6 C6             1.2183    -0.6868     0.0012 C.ar    
   7 C7             1.2327    -2.1650    -0.0285 C.2     
   8 N8             2.4010    -2.8251    -0.1531 N.am    
   9 O9             0.1908    -2.7848     0.0596 O.2     
  10 C10            2.4656    -4.2929    -0.0559 C.3     
  11 C11            3.6586    -2.1111    -0.3971 C.3     
  12 C12            4.4474    -2.8219    -1.4689 C.ar    
  13 C13            4.1070    -4.0781    -1.9223 C.ar    
  14 C14            2.9162    -4.8333    -1.4120 C.3     
  15 C15            5.5513    -2.1648    -1.9993 C.ar    
  16 C16            6.3221    -2.7576    -2.9755 C.ar    
  17 C17            5.9892    -4.0347    -3.4355 C.ar    
  18 C18            4.8788    -4.6877    -2.9025 C.ar    
  19 Cl19           4.4585    -6.2744    -3.4677 Cl      
  20 Cl20           7.6970    -1.9237    -3.6298 Cl      
  21 C21            6.8070    -4.6871    -4.4780 C.2     
  22 N22            6.5051    -4.5113    -5.7797 N.am    
  23 O23            7.7526    -5.3828    -4.1619 O.2     
  24 C24            7.3164    -5.1584    -6.8137 C.3     
  25 C25            8.5141    -4.2980    -7.1243 C.2     
  26 O26            9.4036    -4.6941    -8.0481 O.3     
  27 O27            8.6736    -3.2516    -6.5416 O.2     
  28 C28            6.4775    -5.3411    -8.0801 C.3     
  29 N29            5.2532    -6.0761    -7.7531 N.am    
  30 O30           -0.7651     2.2712    -1.0710 O.3     
  31 C31           -0.6082     3.5516    -0.4362 C.3     
  32 C32            0.8882     3.5586    -0.0441 C.3     
  33 C33            4.3561    -6.3550    -8.7195 C.2     
  34 O34            4.5631    -5.9961    -9.8638 O.2     
  35 C35            3.1311    -7.0904    -8.3923 C.2     
  36 S36            2.6881    -7.6744    -6.7940 S.3     
  37 C37            2.1476    -7.4269    -9.2793 C.2     
  38 C38            1.1078    -8.1167    -8.7024 C.2     
  39 C39            1.2322    -8.3364    -7.3882 C.2     
  40 H40           -0.6444    -0.5289    -1.0542 H       
  41 H41            3.0458     1.9319     1.1109 H       
  42 H42            3.0847    -0.5294     1.0609 H       
  43 H43            3.1831    -4.5805     0.7126 H       
  44 H44            1.4809    -4.6899     0.1907 H       
  45 H45            3.4409    -1.0936    -0.7217 H       
  46 H46            4.2426    -2.0804     0.5228 H       
  47 H47            3.1790    -5.8855    -1.3029 H       
  48 H48            2.0995    -4.7410    -2.1279 H       
  49 H49            5.8076    -1.1783    -1.6424 H       
  50 H50            5.7507    -3.9562    -6.0319 H       
  51 H51            7.6514    -6.1321    -6.4563 H       
  52 H52           10.1555    -4.1089    -8.2129 H       
  53 H53            6.2170    -4.3642    -8.4874 H       
  54 H54            7.0514    -5.9012    -8.8184 H       
  55 H55            5.0882    -6.3621    -6.8410 H       
  56 H56           -0.8281     4.3586    -1.1351 H       
  57 H57           -1.2397     3.6235     0.4493 H       
  58 H58            1.0376     4.0581     0.9131 H       
  59 H59            1.4926     4.0235    -0.8230 H       
  60 H60            2.1835    -7.1756   -10.3291 H       
  61 H61            0.2520    -8.4546    -9.2679 H       
  62 H62            0.5074    -8.8620    -6.7843 H       
@<TRIPOS>BOND
   1    1    2 ar
   2    1    3 ar
   3    1   30 1
   4    2    6 ar
   5    2   40 1
   6    3    4 ar
   7    3   32 1
   8    4    5 ar
   9    4   41 1
  10    5    6 ar
  11    5   42 1
  12    6    7 1
  13    7    8 am
  14    7    9 2
  15    8   10 1
  16    8   11 1
  17   10   14 1
  18   10   43 1
  19   10   44 1
  20   11   12 1
  21   11   45 1
  22   11   46 1
  23   12   13 ar
  24   12   15 ar
  25   13   14 1
  26   13   18 ar
  27   14   47 1
  28   14   48 1
  29   15   16 ar
  30   15   49 1
  31   16   17 ar
  32   16   20 1
  33   17   18 ar
  34   17   21 1
  35   18   19 1
  36   21   22 am
  37   21   23 2
  38   22   24 1
  39   22   50 1
  40   24   25 1
  41   24   28 1
  42   24   51 1
  43   25   26 1
  44   25   27 2
  45   26   52 1
  46   28   29 1
  47   28   53 1
  48   28   54 1
  49   29   33 am
  50   29   55 1
  51   30   31 1
  52   31   32 1
  53   31   56 1
  54   31   57 1
  55   32   58 1
  56   32   59 1
  57   33   34 2
  58   33   35 1
  59   35   36 1
  60   35   37 2
  61   36   39 1
  62   37   38 1
  63   37   60 1
  64   38   39 2
  65   38   61 1
  66   39   62 1

#	End of record

