#	Name: ASD03080010
#	Creating user name:	WinNT
#	Creation time:	15. 06. 2019 20:26

#	Modifying user name:	WinNT
#	Modification time:	15. 06. 2019 20:26

#	Program:	/corina/corina34_cracker 3.40 0067  02.08.2006

@<TRIPOS>MOLECULE
ASD03080010
  26   28    0    0    0
SMALL
NO_CHARGES


@<TRIPOS>ATOM
   1 C1            -0.0168     1.3843     0.0097 C.ar    
   2 C2             0.0021    -0.0041     0.0020 C.ar    
   3 C3             1.2232    -0.6647    -0.0132 C.ar    
   4 C4             2.3921     0.1045    -0.0203 C.ar    
   5 C5             2.2849     1.4957    -0.0118 C.ar    
   6 N6             1.1042     2.0788     0.0027 N.ar    
   7 O7            -1.1607    -0.7078     0.0098 O.3     
   8 O8             3.9625    -1.8663    -0.0455 O.3     
   9 N9             5.1586    -2.0660    -0.0575 N.2     
  10 C10            5.8091    -0.9307    -0.0573 C.2     
  11 N11            4.8919     0.0590    -0.0435 N.2     
  12 C12            3.7194    -0.5465    -0.0360 C.2     
  13 C13            7.8512     0.5098    -0.0674 C.ar    
  14 C14            7.2839    -0.7626    -0.0695 C.ar    
  15 C15            8.1254    -1.8777    -0.0829 C.ar    
  16 C16            9.4940    -1.6676    -0.0935 C.ar    
  17 C17            9.9795    -0.3730    -0.0905 C.ar    
  18 N18            9.1597     0.6605    -0.0778 N.ar    
  19 H19           -0.9639     1.9033     0.0169 H       
  20 H20            1.2696    -1.7437    -0.0191 H       
  21 H21            3.1796     2.1005    -0.0168 H       
  22 H22           -1.5060    -0.9068    -0.8712 H       
  23 H23            7.2123     1.3805    -0.0616 H       
  24 H24            7.7188    -2.8782    -0.0846 H       
  25 H25           10.1748    -2.5059    -0.1036 H       
  26 H26           11.0463    -0.2053    -0.0984 H       
@<TRIPOS>BOND
   1    1    2 ar
   2    1    6 ar
   3    1   19 1
   4    2    3 ar
   5    2    7 1
   6    3    4 ar
   7    3   20 1
   8    4    5 ar
   9    4   12 1
  10    5    6 ar
  11    5   21 1
  12    7   22 1
  13    8    9 1
  14    8   12 1
  15    9   10 2
  16   10   11 1
  17   10   14 1
  18   11   12 2
  19   13   14 ar
  20   13   18 ar
  21   13   23 1
  22   14   15 ar
  23   15   16 ar
  24   15   24 1
  25   16   17 ar
  26   16   25 1
  27   17   18 ar
  28   17   26 1

#	End of record

