#	Name: ASD03091131
#	Creating user name:	WinNT
#	Creation time:	15. 06. 2019 20:30

#	Modifying user name:	WinNT
#	Modification time:	15. 06. 2019 20:30

#	Program:	/corina/corina34_cracker 3.40 0067  02.08.2006

@<TRIPOS>MOLECULE
ASD03091131
  22   22    0    0    0
SMALL
NO_CHARGES


@<TRIPOS>ATOM
   1 C1             0.0572     1.3099    -0.0365 C.ar    
   2 C2            -0.0592    -0.0650    -0.1247 C.ar    
   3 C3             1.0720    -0.8588    -0.0945 C.ar    
   4 C4             2.3210    -0.2788     0.0239 C.ar    
   5 C5             2.4388     1.0978     0.1118 C.ar    
   6 C6             1.3048     1.8920     0.0815 C.ar    
   7 S7            -1.3854     2.3205    -0.0820 S.o2    
   8 O8            -0.9454     3.6571     0.1164 O.2     
   9 O9            -2.1287     1.9079    -1.2206 O.2     
  10 N10           -2.3006     1.9283     1.2412 N.am    
  11 N11           -1.3961    -0.6873    -0.2511 N.pl3   
  12 O12           -1.4939    -1.8844    -0.4534 O.2     
  13 O13           -2.3984    -0.0024    -0.1527 O.2     
  14 C14           -1.7700     2.1456     2.5894 C.3     
  15 F15            3.6591     1.6658     0.2280 F       
  16 H16            0.9799    -1.9327    -0.1631 H       
  17 H17            3.2047    -0.8993     0.0482 H       
  18 H18            1.3955     2.9660     0.1500 H       
  19 H19           -3.1880     1.5546     1.1236 H       
  20 H20           -2.4712     1.7496     3.3240 H       
  21 H21           -0.8121     1.6353     2.6894 H       
  22 H22           -1.6320     3.2136     2.7577 H       
@<TRIPOS>BOND
   1    1    2 ar
   2    1    6 ar
   3    1    7 1
   4    2    3 ar
   5    2   11 1
   6    3    4 ar
   7    3   16 1
   8    4    5 ar
   9    4   17 1
  10    5    6 ar
  11    5   15 1
  12    6   18 1
  13    7    8 2
  14    7    9 2
  15    7   10 am
  16   10   14 1
  17   10   19 1
  18   11   12 2
  19   11   13 2
  20   14   20 1
  21   14   21 1
  22   14   22 1

#	End of record

