#	Name: ASD08170081
#	Creating user name:	WinNT
#	Creation time:	15. 06. 2019 21:17

#	Modifying user name:	WinNT
#	Modification time:	15. 06. 2019 21:17

#	Program:	/corina/corina34_cracker 3.40 0067  02.08.2006

@<TRIPOS>MOLECULE
ASD08170081
  68   71    0    0    0
SMALL
NO_CHARGES


@<TRIPOS>ATOM
   1 N1            -0.0150     1.2583     0.0090 N.2     
   2 N2             0.0021    -0.0041     0.0020 N.2     
   3 C3             1.1271     1.8769     0.0014 C.2     
   4 S4             2.3826     0.7116    -0.0169 S.3     
   5 C5             1.1681    -0.5677    -0.0121 C.2     
   6 C6             1.4387    -2.0502    -0.0227 C.3     
   7 C7             1.5165    -2.5442    -1.4687 C.3     
   8 C8             1.8690    -4.5432    -2.9254 C.3     
   9 C9             2.1395    -6.0257    -2.9359 C.2     
  10 N10            1.2478    -6.9651    -2.9329 N.2     
  11 S11            3.7275    -6.7933    -2.9623 S.3     
  12 C12            2.9647    -8.3272    -2.9581 C.2     
  13 N13            1.6777    -8.1521    -2.9433 N.2     
  14 N14            3.6154    -9.5562    -2.9730 N.am    
  15 C15            2.8993   -10.6980    -2.9678 C.2     
  16 O16            1.6874   -10.6536    -2.9501 O.2     
  17 C17            3.6044   -12.0297    -2.9839 C.3     
  18 N18            1.3017     3.2566     0.0067 N.am    
  19 C19            0.2284     4.0717     0.0214 C.2     
  20 C20            0.4176     5.5667     0.0272 C.3     
  21 O21           -0.8897     3.6019     0.0299 O.2     
  22 C22            1.7912    -4.0493    -1.4794 C.3     
  23 C23            2.5684   -13.1555    -2.9740 C.3     
  24 C24           -0.9494     6.2538     0.0441 C.3     
  25 C25           -0.7592     7.7674     0.1757 C.3     
  26 C26            3.2782   -14.5048    -3.1160 C.3     
  27 C27           -1.6904     5.9492    -1.2598 C.3     
  28 N28           -2.9938     6.6255    -1.2530 N.3     
  29 C29           -2.8352     8.0833    -1.1750 C.3     
  30 C30           -2.1283     8.4516     0.1314 C.3     
  31 C31            2.2406   -15.6285    -3.0449 C.3     
  32 C32            1.4778   -15.5288    -1.7219 C.3     
  33 N33            0.8160   -14.2209    -1.6344 N.3     
  34 C34            1.7961   -13.1275    -1.6530 C.3     
  35 H35            2.3843    -2.2506     0.4811 H       
  36 H36            0.6334    -2.5702     0.4961 H       
  37 H37            0.5709    -2.3438    -1.9724 H       
  38 H38            2.3218    -2.0242    -1.9874 H       
  39 H39            2.6743    -4.0232    -3.4441 H       
  40 H40            0.9234    -4.3429    -3.4291 H       
  41 H41            4.5846    -9.5917    -2.9871 H       
  42 H42            4.2156   -12.1064    -3.8831 H       
  43 H43            4.2413   -12.1143    -2.1034 H       
  44 H44            2.1959     3.6323    -0.0001 H       
  45 H45            0.9817     5.8582     0.9132 H       
  46 H46            0.9643     5.8672    -0.8667 H       
  47 H47            2.7368    -4.2496    -0.9756 H       
  48 H48            0.9858    -4.5693    -0.9606 H       
  49 H49            1.8754   -13.0197    -3.8043 H       
  50 H50           -1.5314     5.8853     0.8888 H       
  51 H51           -0.2702     7.9920     1.1236 H       
  52 H52           -0.1438     8.1302    -0.6476 H       
  53 H53            3.7942   -14.5457    -4.0753 H       
  54 H54            3.9999   -14.6236    -2.3078 H       
  55 H55           -1.1008     6.3055    -2.1045 H       
  56 H56           -1.8401     4.8732    -1.3497 H       
  57 H57           -3.5411     6.3640    -2.0593 H       
  58 H58           -2.2401     8.4296    -2.0200 H       
  59 H59           -3.8162     8.5575    -1.2032 H       
  60 H60           -2.7295     8.1179     0.9771 H       
  61 H61           -1.9967     9.5325     0.1818 H       
  62 H62            1.5419   -15.5319    -3.8759 H       
  63 H63            2.7445   -16.5933    -3.1026 H       
  64 H64            0.7284   -16.3189    -1.6743 H       
  65 H65            2.1751   -15.6393    -0.8914 H       
  66 H66            0.1360   -14.1096    -2.3715 H       
  67 H67            2.4919   -13.2493    -0.8229 H       
  68 H68            1.2779   -12.1736    -1.5555 H       
@<TRIPOS>BOND
   1    1    2 1
   2    1    3 2
   3    2    5 2
   4    3    4 1
   5    3   18 1
   6    4    5 1
   7    5    6 1
   8    6    7 1
   9    6   35 1
  10    6   36 1
  11    7   22 1
  12    7   37 1
  13    7   38 1
  14    8    9 1
  15    8   22 1
  16    8   39 1
  17    8   40 1
  18    9   10 2
  19    9   11 1
  20   10   13 1
  21   11   12 1
  22   12   13 2
  23   12   14 1
  24   14   15 am
  25   14   41 1
  26   15   16 2
  27   15   17 1
  28   17   23 1
  29   17   42 1
  30   17   43 1
  31   18   19 am
  32   18   44 1
  33   19   20 1
  34   19   21 2
  35   20   24 1
  36   20   45 1
  37   20   46 1
  38   22   47 1
  39   22   48 1
  40   23   26 1
  41   23   34 1
  42   23   49 1
  43   24   25 1
  44   24   27 1
  45   24   50 1
  46   25   30 1
  47   25   51 1
  48   25   52 1
  49   26   31 1
  50   26   53 1
  51   26   54 1
  52   27   28 1
  53   27   55 1
  54   27   56 1
  55   28   29 1
  56   28   57 1
  57   29   30 1
  58   29   58 1
  59   29   59 1
  60   30   60 1
  61   30   61 1
  62   31   32 1
  63   31   62 1
  64   31   63 1
  65   32   33 1
  66   32   64 1
  67   32   65 1
  68   33   34 1
  69   33   66 1
  70   34   67 1
  71   34   68 1

#	End of record

