#	Name: ASD05380130
#	Creating user name:	WinNT
#	Creation time:	15. 06. 2019 20:59

#	Modifying user name:	WinNT
#	Modification time:	15. 06. 2019 20:59

#	Program:	/corina/corina34_cracker 3.40 0067  02.08.2006

@<TRIPOS>MOLECULE
ASD05380130
  51   55    0    0    0
SMALL
NO_CHARGES


@<TRIPOS>ATOM
   1 C1            -0.1727     1.9239    -0.1510 C.ar    
   2 C2             0.1293     0.5972    -0.5322 C.ar    
   3 C3             0.7028     2.9588    -0.4724 C.ar    
   4 C4             1.8616     2.6780    -1.1630 C.ar    
   5 C5             2.1615     1.3756    -1.5392 C.ar    
   6 C6             1.3099     0.3383    -1.2309 C.ar    
   7 N7            -0.7379    -0.3943    -0.2084 N.2     
   8 C8            -1.8356    -0.1532     0.4417 C.2     
   9 N9            -2.2060     1.0914     0.8479 N.am    
  10 C10           -1.4202     2.1625     0.5893 C.2     
  11 C11           -3.4082     1.2647     1.5453 C.ar    
  12 C12           -4.5872     1.5026     0.8512 C.ar    
  13 C13           -5.7832     1.6067     2.9230 C.ar    
  14 C14           -2.7459    -1.3106     0.7623 C.3     
  15 N15           -2.7189    -2.2734    -0.3416 N.pl3   
  16 C16           -3.7952    -3.1182    -0.5493 C.ar    
  17 N17           -4.8611    -3.0692     0.2431 N.ar    
  18 O18           -1.7390     3.2816     0.9468 O.2     
  19 C19           -3.7890    -4.0437    -1.6065 C.ar    
  20 C20           -4.9106    -4.8750    -1.7672 C.ar    
  21 N21           -5.9283    -4.7572    -0.9208 N.ar    
  22 C22           -5.8925    -3.8714     0.0524 C.ar    
  23 N23           -2.9107    -4.3645    -2.5868 N.2     
  24 C24           -3.4095    -5.3163    -3.3209 C.2     
  25 N25           -4.6422    -5.6660    -2.8556 N.pl3   
  26 C26           -5.7711     1.6727     1.5418 C.ar    
  27 C27           -4.6118     1.3642     3.6168 C.ar    
  28 C28           -3.4247     1.1933     2.9320 C.ar    
  29 C29           -2.2700    -1.9933     2.0462 C.3     
  30 C30            0.3844     4.3753    -0.0681 C.3     
  31 C31           -3.2384    -3.0303     2.4385 C.1     
  32 C32           -4.0107    -3.8573     2.7513 C.1     
  33 H33            2.5424     3.4780    -1.4142 H       
  34 H34            3.0740     1.1735    -2.0804 H       
  35 H35            1.5540    -0.6708    -1.5285 H       
  36 H36           -4.5783     1.5550    -0.2274 H       
  37 H37           -6.7102     1.7403     3.4608 H       
  38 H38           -3.7634    -0.9451     0.9008 H       
  39 H39           -1.9467    -2.3188    -0.9268 H       
  40 H40           -6.7381    -3.7984     0.7202 H       
  41 H41           -2.9192    -5.7632    -4.1731 H       
  42 H42           -5.2228    -6.3493    -3.2256 H       
  43 H43           -6.6884     1.8578     1.0026 H       
  44 H44           -4.6244     1.3136     4.6956 H       
  45 H45           -2.5102     1.0040     3.4744 H       
  46 H46           -1.2962    -2.4519     1.8744 H       
  47 H47           -2.1878    -1.2532     2.8422 H       
  48 H48            0.6973     4.5378     0.9633 H       
  49 H49            0.9146     5.0676    -0.7221 H       
  50 H50           -0.6889     4.5449    -0.1532 H       
  51 H51           -4.7014    -4.5970     3.0311 H       
@<TRIPOS>BOND
   1    1    2 ar
   2    1    3 ar
   3    1   10 1
   4    2    7 1
   5    2    6 ar
   6    3    4 ar
   7    3   30 1
   8    4    5 ar
   9    4   33 1
  10    5    6 ar
  11    5   34 1
  12    6   35 1
  13    7    8 2
  14    8    9 1
  15    8   14 1
  16    9   10 am
  17    9   11 1
  18   10   18 2
  19   11   12 ar
  20   11   28 ar
  21   12   26 ar
  22   12   36 1
  23   13   26 ar
  24   13   27 ar
  25   13   37 1
  26   14   15 1
  27   14   29 1
  28   14   38 1
  29   15   16 1
  30   15   39 1
  31   16   17 ar
  32   16   19 ar
  33   17   22 ar
  34   19   20 ar
  35   19   23 1
  36   20   21 ar
  37   20   25 1
  38   21   22 ar
  39   22   40 1
  40   23   24 2
  41   24   25 1
  42   24   41 1
  43   25   42 1
  44   26   43 1
  45   27   28 ar
  46   27   44 1
  47   28   45 1
  48   29   31 1
  49   29   46 1
  50   29   47 1
  51   30   48 1
  52   30   49 1
  53   30   50 1
  54   31   32 3
  55   32   51 1

#	End of record

