#	Name: ASD06340034
#	Creating user name:	WinNT
#	Creation time:	15. 06. 2019 21:05

#	Modifying user name:	WinNT
#	Modification time:	15. 06. 2019 21:05

#	Program:	/corina/corina34_cracker 3.40 0067  02.08.2006

@<TRIPOS>MOLECULE
ASD06340034
  40   42    0    0    0
SMALL
NO_CHARGES


@<TRIPOS>ATOM
   1 S1            -0.0298     1.7015     0.0182 S.3     
   2 N2            -0.0038     0.0036     0.0291 N.am    
   3 C3             1.2911    -0.3495     0.0388 C.2     
   4 N4             2.1787     0.6340     0.0375 N.am    
   5 C5             1.6821     1.8826     0.0268 C.2     
   6 O6             1.6334    -1.5172     0.0485 O.2     
   7 O7             2.3115     2.9245     0.0229 O.2     
   8 C8             3.6206     0.3749     0.0479 C.3     
   9 C9             4.1235     0.2767    -1.3693 C.ar    
  10 C10            4.5658     1.4103    -2.0254 C.ar    
  11 C11            5.0276     1.3213    -3.3249 C.ar    
  12 C12            5.0472     0.0962    -3.9697 C.ar    
  13 C13            4.6039    -1.0385    -3.3116 C.ar    
  14 C14            4.1474    -0.9479    -2.0104 C.ar    
  15 F15            5.4980     0.0081    -5.2402 F       
  16 C16           -1.1098    -0.8548     0.0287 C.ar    
  17 C17           -2.3240    -0.4227    -0.4894 C.ar    
  18 C18           -3.4146    -1.2692    -0.4898 C.ar    
  19 C19           -3.2977    -2.5527     0.0279 C.ar    
  20 C20           -2.0837    -2.9846     0.5464 C.ar    
  21 C21           -0.9914    -2.1404     0.5412 C.ar    
  22 N22           -4.4030    -3.4104     0.0275 N.pl3   
  23 C23           -5.7143    -2.9152    -0.3984 C.3     
  24 C24           -4.2491    -4.8038     0.4530 C.3     
  25 H25            4.1325     1.1900     0.5594 H       
  26 H26            3.8176    -0.5619     0.5691 H       
  27 H27            4.5501     2.3658    -1.5223 H       
  28 H28            5.3728     2.2071    -3.8374 H       
  29 H29            4.6187    -1.9946    -3.8136 H       
  30 H30            3.8054    -1.8336    -1.4954 H       
  31 H31           -2.4150     0.5754    -0.8916 H       
  32 H32           -4.3588    -0.9331    -0.8923 H       
  33 H33           -1.9930    -3.9825     0.9493 H       
  34 H34           -0.0461    -2.4780     0.9397 H       
  35 H35           -5.8280    -3.0647    -1.4721 H       
  36 H36           -6.4973    -3.4600     0.1291 H       
  37 H37           -5.7934    -1.8526    -0.1691 H       
  38 H38           -3.1957    -5.0122     0.6404 H       
  39 H39           -4.8203    -4.9700     1.3663 H       
  40 H40           -4.6166    -5.4658    -0.3310 H       
@<TRIPOS>BOND
   1    1    2 1
   2    1    5 1
   3    2    3 am
   4    2   16 1
   5    3    4 am
   6    3    6 2
   7    4    5 am
   8    4    8 1
   9    5    7 2
  10    8    9 1
  11    8   25 1
  12    8   26 1
  13    9   10 ar
  14    9   14 ar
  15   10   11 ar
  16   10   27 1
  17   11   12 ar
  18   11   28 1
  19   12   13 ar
  20   12   15 1
  21   13   14 ar
  22   13   29 1
  23   14   30 1
  24   16   17 ar
  25   16   21 ar
  26   17   18 ar
  27   17   31 1
  28   18   19 ar
  29   18   32 1
  30   19   20 ar
  31   19   22 1
  32   20   21 ar
  33   20   33 1
  34   21   34 1
  35   22   23 1
  36   22   24 1
  37   23   35 1
  38   23   36 1
  39   23   37 1
  40   24   38 1
  41   24   39 1
  42   24   40 1

#	End of record

