#	Name: ASD01148309
#	Creating user name:	WinNT
#	Creation time:	15. 06. 2019 19:02

#	Modifying user name:	WinNT
#	Modification time:	15. 06. 2019 19:02

#	Program:	/corina/corina34_cracker 3.40 0067  02.08.2006

@<TRIPOS>MOLECULE
ASD01148309
  55   58    0    0    0
SMALL
NO_CHARGES


@<TRIPOS>ATOM
   1 C1            -0.0167     1.3781     0.0096 C.ar    
   2 C2             0.0021    -0.0041     0.0020 C.ar    
   3 C3            -1.1855    -0.7115     0.0095 C.ar    
   4 C4            -2.3919    -0.0366     0.0251 C.ar    
   5 C5            -2.4106     1.3455     0.0336 C.ar    
   6 C6            -1.2230     2.0529     0.0305 C.ar    
   7 C7            -3.7258     2.0812     0.0501 C.3     
   8 O8            -4.7306     1.3264     0.7574 O.3     
   9 C9            -3.6320     3.3642     0.9100 C.3     
  10 C10           -4.1231     2.8897     2.2645 C.2     
  11 N11           -4.7174     1.7550     2.1047 N.2     
  12 C12           -3.9506     3.6028     3.5454 C.ar    
  13 C13           -4.4546     3.0507     4.7258 C.ar    
  14 C14           -3.2783     4.8272     3.5784 C.ar    
  15 C15           -3.1176     5.4921     4.7729 C.ar    
  16 C16           -3.6266     4.9428     5.9521 C.ar    
  17 C17           -4.2937     3.7159     5.9202 C.ar    
  18 C18           -3.4535     5.6566     7.2347 C.2     
  19 O19           -2.8682     6.7216     7.2634 O.2     
  20 N20           -3.9445     5.1266     8.3725 N.am    
  21 C21           -4.1857     2.4068    -1.3724 C.3     
  22 F22           -4.3278     1.2202    -2.0997 F       
  23 F23           -5.4144     3.0740    -1.3239 F       
  24 F24           -3.2356     3.2240    -1.9941 F       
  25 C25           -3.7729     5.8342     9.6438 C.3     
  26 C26           -4.4079     5.0355    10.7528 C.ar    
  27 N27           -5.6972     5.1675    10.9951 N.ar    
  28 C28           -6.2955     4.4892    11.9550 C.ar    
  29 C29           -5.5840     3.6088    12.7475 C.ar    
  30 C30           -4.2257     3.4433    12.5225 C.ar    
  31 C31           -3.6330     4.1689    11.5006 C.ar    
  32 C32            1.2780     2.1493     0.0014 C.3     
  33 F33            2.3536     1.2548    -0.0137 F       
  34 F34            1.3303     2.9607    -1.1371 F       
  35 F35            1.3521     2.9484     1.1473 F       
  36 C36           -1.1651    -2.2183     0.0002 C.3     
  37 F37            0.1600    -2.6666    -0.0156 F       
  38 F38           -1.8069    -2.7004     1.1460 F       
  39 F39           -1.8295    -2.6867    -1.1384 F       
  40 H40            0.9446    -0.5313    -0.0101 H       
  41 H41           -3.3198    -0.5893     0.0302 H       
  42 H42           -1.2376     3.1328     0.0372 H       
  43 H43           -2.6014     3.7135     0.9727 H       
  44 H44           -4.2825     4.1439     0.5140 H       
  45 H45           -4.9707     2.1023     4.7011 H       
  46 H46           -2.8845     5.2518     2.6668 H       
  47 H47           -2.5976     6.4384     4.7985 H       
  48 H48           -4.6871     3.2913     6.8320 H       
  49 H49           -4.4115     4.2768     8.3496 H       
  50 H50           -2.7098     5.9597     9.8491 H       
  51 H51           -4.2491     6.8127     9.5821 H       
  52 H52           -7.3537     4.6238    12.1239 H       
  53 H53           -6.0794     3.0567    13.5325 H       
  54 H54           -3.6442     2.7625    13.1263 H       
  55 H55           -2.5775     4.0647    11.2969 H       
@<TRIPOS>BOND
   1    1    2 ar
   2    1   32 1
   3    1    6 ar
   4    2    3 ar
   5    2   40 1
   6    3    4 ar
   7    3   36 1
   8    4    5 ar
   9    4   41 1
  10    5    6 ar
  11    5    7 1
  12    6   42 1
  13    7    8 1
  14    7    9 1
  15    7   21 1
  16    8   11 1
  17    9   10 1
  18    9   43 1
  19    9   44 1
  20   10   11 2
  21   10   12 1
  22   12   13 ar
  23   12   14 ar
  24   13   17 ar
  25   13   45 1
  26   14   15 ar
  27   14   46 1
  28   15   16 ar
  29   15   47 1
  30   16   17 ar
  31   16   18 1
  32   17   48 1
  33   18   19 2
  34   18   20 am
  35   20   25 1
  36   20   49 1
  37   21   22 1
  38   21   23 1
  39   21   24 1
  40   25   26 1
  41   25   50 1
  42   25   51 1
  43   26   27 ar
  44   26   31 ar
  45   27   28 ar
  46   28   29 ar
  47   28   52 1
  48   29   30 ar
  49   29   53 1
  50   30   31 ar
  51   30   54 1
  52   31   55 1
  53   32   33 1
  54   32   34 1
  55   32   35 1
  56   36   37 1
  57   36   38 1
  58   36   39 1

#	End of record

