#	Name: ASD01411138
#	Creating user name:	WinNT
#	Creation time:	15. 06. 2019 19:19

#	Modifying user name:	WinNT
#	Modification time:	15. 06. 2019 19:19

#	Program:	/corina/corina34_cracker 3.40 0067  02.08.2006

@<TRIPOS>MOLECULE
ASD01411138
  69   71    0    0    0
SMALL
NO_CHARGES


@<TRIPOS>ATOM
   1 C1            -0.1241     1.6024     0.1852 C.2     
   2 C2             0.8267     0.6711     0.5263 C.2     
   3 C3             2.0901     1.1687     0.6643 C.2     
   4 S4             2.0899     2.8983     0.3503 S.3     
   5 C5             0.3594     2.8819     0.0404 C.2     
   6 C6             3.2443     0.3967     1.0140 C.1     
   7 C7             4.1906    -0.2363     1.3006 C.1     
   8 C8             5.3771    -1.0300     1.6600 C.3     
   9 C9             6.6036    -0.1170     1.7158 C.3     
  10 C10            5.1614    -1.6785     3.0289 C.3     
  11 C11            5.5995    -2.1193     0.6090 C.3     
  12 C12           -0.4170     4.0119    -0.3056 C.2     
  13 O13           -1.6295     3.9223    -0.3647 O.2     
  14 O14            0.1865     5.1901    -0.5704 O.3     
  15 N15           -1.4678     1.2763    -0.0042 N.am    
  16 C16           -2.1491     0.6358     0.9664 C.2     
  17 C17           -3.6381     0.4414     0.8393 C.3     
  18 O18           -1.5638     0.2159     1.9422 O.2     
  19 C19           -5.8245     1.6000     0.4934 C.3     
  20 C20           -4.3128     1.7974     0.6225 C.3     
  21 C21           -4.1799    -0.1991     2.1188 C.3     
  22 C22           -5.6916    -0.3965     1.9897 C.3     
  23 C23           -6.3663     0.9595     1.7729 C.3     
  24 C24           -7.8780     0.7622     1.6438 C.3     
  25 C25           -2.1377     1.6301    -1.2581 C.3     
  26 O26           -4.3274     0.9787    -1.8708 O.2     
  27 C27           -3.2131     0.6094    -1.5660 C.2     
  28 C28           -1.1219     1.6255    -2.4030 C.3     
  29 N29           -2.9387    -0.6943    -1.5035 N.am    
  30 C30           -0.0805     0.5412    -2.1935 C.3     
  31 C31           -1.5923    -1.1556    -1.1281 C.3     
  32 C32           -0.6359    -0.8682    -2.2872 C.3     
  33 C33           -3.9844    -1.6735    -1.8099 C.3     
  34 H34            0.5926    -0.3729     0.6738 H       
  35 H35            6.4451     0.6590     2.4646 H       
  36 H36            7.4822    -0.7047     1.9819 H       
  37 H37            6.7573     0.3450     0.7406 H       
  38 H38            4.2876    -2.3289     2.9892 H       
  39 H39            6.0399    -2.2662     3.2950 H       
  40 H40            5.0029    -0.9024     3.7777 H       
  41 H41            5.7532    -1.6573    -0.3662 H       
  42 H42            6.4781    -2.7070     0.8751 H       
  43 H43            4.7257    -2.7697     0.5692 H       
  44 H44           -0.4258     5.9034    -0.7971 H       
  45 H45           -3.8484    -0.2089    -0.0098 H       
  46 H46           -6.3052     2.5661     0.3390 H       
  47 H47           -6.0348     0.9497    -0.3557 H       
  48 H48           -4.1025     2.4477     1.4716 H       
  49 H49           -3.9268     2.2537    -0.2890 H       
  50 H50           -3.6992    -1.1651     2.2732 H       
  51 H51           -3.9696     0.4513     2.9679 H       
  52 H52           -5.9019    -1.0468     1.1406 H       
  53 H53           -6.0776    -0.8528     2.9012 H       
  54 H54           -6.1560     1.6099     2.6220 H       
  55 H55           -8.0883     0.1118     0.7947 H       
  56 H56           -8.2640     0.3058     2.5554 H       
  57 H57           -8.3587     1.7282     1.4894 H       
  58 H58           -2.5837     2.6206    -1.1682 H       
  59 H59           -1.6423     1.4463    -3.3438 H       
  60 H60           -0.6263     2.5953    -2.4469 H       
  61 H61            0.6999     0.6584    -2.9453 H       
  62 H62            0.3669     0.6741    -1.2084 H       
  63 H63           -1.2584    -0.6234    -0.2374 H       
  64 H64           -1.6149    -2.2272    -0.9298 H       
  65 H65           -1.1714    -0.9805    -3.2299 H       
  66 H66            0.1882    -1.5809    -2.2570 H       
  67 H67           -4.9071    -1.1521    -2.0644 H       
  68 H68           -3.6702    -2.2887    -2.6531 H       
  69 H69           -4.1538    -2.3083    -0.9402 H       
@<TRIPOS>BOND
   1    1    2 1
   2    1    5 2
   3    1   15 1
   4    2    3 2
   5    2   34 1
   6    3    4 1
   7    3    6 1
   8    4    5 1
   9    5   12 1
  10    6    7 3
  11    7    8 1
  12    8    9 1
  13    8   10 1
  14    8   11 1
  15    9   35 1
  16    9   36 1
  17    9   37 1
  18   10   38 1
  19   10   39 1
  20   10   40 1
  21   11   41 1
  22   11   42 1
  23   11   43 1
  24   12   13 2
  25   12   14 1
  26   14   44 1
  27   15   16 am
  28   15   25 1
  29   16   18 2
  30   16   17 1
  31   17   21 1
  32   17   20 1
  33   17   45 1
  34   19   20 1
  35   19   23 1
  36   19   46 1
  37   19   47 1
  38   20   48 1
  39   20   49 1
  40   21   22 1
  41   21   50 1
  42   21   51 1
  43   22   23 1
  44   22   52 1
  45   22   53 1
  46   23   24 1
  47   23   54 1
  48   24   55 1
  49   24   56 1
  50   24   57 1
  51   25   28 1
  52   25   27 1
  53   25   58 1
  54   26   27 2
  55   27   29 am
  56   28   30 1
  57   28   59 1
  58   28   60 1
  59   29   31 1
  60   29   33 1
  61   30   32 1
  62   30   61 1
  63   30   62 1
  64   31   32 1
  65   31   63 1
  66   31   64 1
  67   32   65 1
  68   32   66 1
  69   33   67 1
  70   33   68 1
  71   33   69 1

#	End of record

