#	Name: ASD01208565
#	Creating user name:	WinNT
#	Creation time:	15. 06. 2019 19:10

#	Modifying user name:	WinNT
#	Modification time:	15. 06. 2019 19:10

#	Program:	/corina/corina34_cracker 3.40 0067  02.08.2006

@<TRIPOS>MOLECULE
ASD01208565
  48   47    0    0    0
SMALL
NO_CHARGES


@<TRIPOS>ATOM
   1 C1             2.6855     1.4259    -0.6791 C.3     
   2 C2             3.1031     0.5310    -1.8478 C.3     
   3 C3             4.0303    -0.5741    -1.3380 C.3     
   4 C4             4.5470    -1.3931    -2.5225 C.3     
   5 O5             3.7890     1.3146    -2.8263 O.3     
   6 O6             1.7293     2.3862    -1.1325 O.3     
   7 Si7            1.3209     3.4968    -0.0100 Si      
   8 C8             0.9102     5.3040    -2.0781 C.3     
   9 C9             0.2492     4.8049    -0.7917 C.3     
  10 C10           -1.1222     4.2114    -1.1201 C.3     
  11 C11           -0.5511     1.6066     0.7868 C.3     
  12 C12            0.3829     2.6687     1.3703 C.3     
  13 C13            1.3709     2.0059     2.3324 C.3     
  14 C14            3.7611     4.7360    -0.4811 C.3     
  15 C15            2.8642     4.2853     0.6736 C.3     
  16 C16            2.4830     5.4970     1.5263 C.3     
  17 N17            5.1656     0.0286    -0.6269 N.3     
  18 H18            2.2417     0.8142     0.1063 H       
  19 H19            3.5611     1.9426    -0.2862 H       
  20 H20            2.2168     0.0831    -2.2972 H       
  21 H21            3.4802    -1.2251    -0.6585 H       
  22 H22            5.2076    -2.1804    -2.1593 H       
  23 H23            3.7046    -1.8403    -3.0501 H       
  24 H24            5.0971    -0.7420    -3.2020 H       
  25 H25            4.5898     1.7441    -2.4954 H       
  26 H26            0.2117     5.9395    -2.6226 H       
  27 H27            1.8038     5.8763    -1.8291 H       
  28 H28            1.1860     4.4518    -2.6992 H       
  29 H29            0.1283     5.6374    -0.0987 H       
  30 H30           -1.6450     3.9706    -0.1945 H       
  31 H31           -1.7050     4.9361    -1.6886 H       
  32 H32           -0.9936     3.3046    -1.7112 H       
  33 H33            0.0381     0.8481     0.2715 H       
  34 H34           -1.1192     1.1405     1.5918 H       
  35 H35           -1.2377     2.0747     0.0813 H       
  36 H36           -0.2043     3.4130     1.9082 H       
  37 H37            2.1279     2.7306     2.6320 H       
  38 H38            0.8372     1.6523     3.2146 H       
  39 H39            1.8513     1.1628     1.8360 H       
  40 H40            4.7333     5.0361    -0.0902 H       
  41 H41            3.8902     3.9127    -1.1836 H       
  42 H42            3.2985     5.5805    -0.9921 H       
  43 H43            3.3998     3.5621     1.2887 H       
  44 H44            1.7711     5.1921     2.2933 H       
  45 H45            3.3764     5.9030     2.0007 H       
  46 H46            2.0299     6.2593     0.8925 H       
  47 H47            4.8476     0.6267     0.1210 H       
  48 H48            5.7932    -0.6813    -0.2801 H       
@<TRIPOS>BOND
   1    1    2 1
   2    1    6 1
   3    1   18 1
   4    1   19 1
   5    2    3 1
   6    2    5 1
   7    2   20 1
   8    3    4 1
   9    3   17 1
  10    3   21 1
  11    4   22 1
  12    4   23 1
  13    4   24 1
  14    5   25 1
  15    6    7 1
  16    7    9 1
  17    7   12 1
  18    7   15 1
  19    8    9 1
  20    8   26 1
  21    8   27 1
  22    8   28 1
  23    9   10 1
  24    9   29 1
  25   10   30 1
  26   10   31 1
  27   10   32 1
  28   11   12 1
  29   11   33 1
  30   11   34 1
  31   11   35 1
  32   12   13 1
  33   12   36 1
  34   13   37 1
  35   13   38 1
  36   13   39 1
  37   14   15 1
  38   14   40 1
  39   14   41 1
  40   14   42 1
  41   15   16 1
  42   15   43 1
  43   16   44 1
  44   16   45 1
  45   16   46 1
  46   17   47 1
  47   17   48 1

#	End of record

