#	Name: ASD01810820
#	Creating user name:	WinNT
#	Creation time:	15. 06. 2019 19:25

#	Modifying user name:	WinNT
#	Modification time:	15. 06. 2019 19:25

#	Program:	/corina/corina34_cracker 3.40 0067  02.08.2006

@<TRIPOS>MOLECULE
ASD01810820
  62   67    0    0    0
SMALL
NO_CHARGES


@<TRIPOS>ATOM
   1 C1             1.2183    -0.5222     0.8091 C.3     
   2 C2             0.0021    -0.0041     0.0020 C.3     
   3 C3             0.2351    -0.5463    -1.4233 C.3     
   4 C4             1.7475    -0.7972    -1.5563 C.3     
   5 C5             2.3806    -0.3987    -0.2072 C.3     
   6 N6            -1.2487    -0.5383     0.5572 N.3     
   7 C7            -2.4230     0.0089    -0.1585 C.3     
   8 C8            -3.5532     0.1634     0.8801 C.3     
   9 C9            -2.9274    -0.2771     2.2095 C.3     
  10 C10           -1.4135    -0.1390     1.9806 C.3     
  11 C11           -3.3962     0.5664     3.3579 C.ar    
  12 C12           -3.9808    -0.3180     4.2614 C.ar    
  13 N13           -3.9126    -1.6244     3.7716 N.am    
  14 C14           -3.3079    -1.6849     2.5685 C.2     
  15 O15           -3.1105    -2.6810     1.9053 O.2     
  16 C16           -3.3473     1.9150     3.6296 C.ar    
  17 C17           -3.8821     2.4045     4.8084 C.ar    
  18 C18           -4.4652     1.5359     5.7124 C.ar    
  19 C19           -4.5160     0.1833     5.4450 C.ar    
  20 C20           -4.4372    -2.7928     4.4828 C.3     
  21 C21           -5.8733    -3.0194     4.0860 C.ar    
  22 C22           -6.1700    -3.8314     3.0063 C.ar    
  23 C23           -7.4835    -4.0422     2.6386 C.ar    
  24 C24           -8.5113    -3.4356     3.3570 C.ar    
  25 C25           -8.2069    -2.6187     4.4436 C.ar    
  26 C26           -6.8902    -2.4191     4.8062 C.ar    
  27 C27           -9.9261    -3.6584     2.9658 C.2     
  28 C28          -11.0248    -3.1294     3.5778 C.2     
  29 N29          -12.1132    -3.5753     2.9188 N.pl3   
  30 N30          -11.6836    -4.4007     1.8725 N.2     
  31 C31          -10.3779    -4.4494     1.8915 C.2     
  32 C32          -13.5051    -3.2524     3.2419 C.3     
  33 H33            1.3993     0.1062     1.6812 H       
  34 H34            1.0718    -1.5612     1.1041 H       
  35 H35           -0.0163     1.0858    -0.0027 H       
  36 H36           -0.3117    -1.4789    -1.5620 H       
  37 H37           -0.0875     0.1894    -2.1600 H       
  38 H38            1.9345    -1.8517    -1.7596 H       
  39 H39            2.1588    -0.1834    -2.3576 H       
  40 H40            2.7463     0.6274    -0.2457 H       
  41 H41            3.1884    -1.0831     0.0521 H       
  42 H42           -2.1772     0.9805    -0.5872 H       
  43 H43           -2.7327    -0.6795    -0.9448 H       
  44 H44           -3.8753     1.2031     0.9385 H       
  45 H45           -4.3940    -0.4814     0.6245 H       
  46 H46           -0.8620    -0.8132     2.6359 H       
  47 H47           -1.0940     0.8923     2.1306 H       
  48 H48           -2.8909     2.5917     2.9223 H       
  49 H49           -3.8438     3.4625     5.0219 H       
  50 H50           -4.8826     1.9180     6.6323 H       
  51 H51           -4.9729    -0.4890     6.1562 H       
  52 H52           -3.8459    -3.6712     4.2243 H       
  53 H53           -4.3802    -2.6198     5.5575 H       
  54 H54           -5.3724    -4.3009     2.4497 H       
  55 H55           -7.7141    -4.6761     1.7951 H       
  56 H56           -9.0000    -2.1457     5.0037 H       
  57 H57           -6.6533    -1.7895     5.6512 H       
  58 H58          -11.0229    -2.4725     4.4350 H       
  59 H59           -9.7541    -5.0057     1.2075 H       
  60 H60          -13.8062    -2.3572     2.6977 H       
  61 H61          -14.1473    -4.0851     2.9551 H       
  62 H62          -13.5975    -3.0745     4.3133 H       
@<TRIPOS>BOND
   1    1    2 1
   2    1    5 1
   3    1   33 1
   4    1   34 1
   5    2    3 1
   6    2    6 1
   7    2   35 1
   8    3    4 1
   9    3   36 1
  10    3   37 1
  11    4    5 1
  12    4   38 1
  13    4   39 1
  14    5   40 1
  15    5   41 1
  16    6    7 1
  17    6   10 1
  18    7    8 1
  19    7   42 1
  20    7   43 1
  21    8    9 1
  22    8   44 1
  23    8   45 1
  24    9   10 1
  25    9   11 1
  26    9   14 1
  27   10   46 1
  28   10   47 1
  29   11   12 ar
  30   11   16 ar
  31   12   13 1
  32   12   19 ar
  33   13   14 am
  34   13   20 1
  35   14   15 2
  36   16   17 ar
  37   16   48 1
  38   17   18 ar
  39   17   49 1
  40   18   19 ar
  41   18   50 1
  42   19   51 1
  43   20   21 1
  44   20   52 1
  45   20   53 1
  46   21   22 ar
  47   21   26 ar
  48   22   23 ar
  49   22   54 1
  50   23   24 ar
  51   23   55 1
  52   24   25 ar
  53   24   27 1
  54   25   26 ar
  55   25   56 1
  56   26   57 1
  57   27   28 2
  58   27   31 1
  59   28   29 1
  60   28   58 1
  61   29   30 1
  62   29   32 1
  63   30   31 2
  64   31   59 1
  65   32   60 1
  66   32   61 1
  67   32   62 1

#	End of record

