#	Name: ASD01885660
#	Creating user name:	WinNT
#	Creation time:	15. 06. 2019 19:49

#	Modifying user name:	WinNT
#	Modification time:	15. 06. 2019 19:49

#	Program:	/corina/corina34_cracker 3.40 0067  02.08.2006

@<TRIPOS>MOLECULE
ASD01885660
  44   47    0    0    0
SMALL
NO_CHARGES


@<TRIPOS>ATOM
   1 C1            -0.0170     1.4041     0.0098 C.ar    
   2 C2             1.2135     2.1082     0.0018 C.ar    
   3 C3             1.1958     3.5260     0.0097 C.ar    
   4 C4            -0.0392     4.1602     0.0249 C.ar    
   5 C5            -1.2085     3.3918     0.0319 C.ar    
   6 N6            -1.1704     2.0727     0.0299 N.ar    
   7 C7             0.0021    -0.0041     0.0020 C.ar    
   8 C8             1.1922    -0.6628    -0.0129 C.ar    
   9 C9             2.3993     0.0338    -0.0208 C.ar    
  10 C10            2.4200     1.3962    -0.0132 C.ar    
  11 C11            2.4544     4.3053     0.0024 C.ar    
  12 C12            2.7911     5.1014     1.0973 C.ar    
  13 C13            3.9650     5.8253     1.0859 C.ar    
  14 C14            4.8103     5.7633    -0.0107 C.ar    
  15 C15            4.4813     4.9746    -1.1016 C.ar    
  16 C16            3.3117     4.2417    -1.0983 C.ar    
  17 C17           -2.5235     4.0768     0.0553 C.2     
  18 N18           -3.6602     3.3530     0.0741 N.am    
  19 O19           -2.5761     5.2907     0.0574 O.2     
  20 C20            1.2056    -2.1697    -0.0206 C.3     
  21 F21            5.9589     6.4745    -0.0162 F       
  22 N22            1.1965    -2.6511    -1.4043 N.am    
  23 C23            2.3176    -2.8790    -2.0995 C.2     
  24 C24            1.9538    -3.3655    -3.4853 C.3     
  25 C25            0.4117    -3.3793    -3.4703 C.3     
  26 C26            0.0663    -2.9046    -2.0757 C.2     
  27 O27            3.4456    -2.7204    -1.6846 O.2     
  28 O28           -1.0560    -2.7685    -1.6381 O.2     
  29 Cl29           2.9005     3.2535    -2.4651 Cl      
  30 H30           -0.0968     5.2387     0.0317 H       
  31 H31           -0.9245    -0.5588     0.0083 H       
  32 H32            3.3303    -0.5134    -0.0323 H       
  33 H33            3.3619     1.9246    -0.0190 H       
  34 H34            2.1333     5.1511     1.9524 H       
  35 H35            4.2260     6.4421     1.9332 H       
  36 H36            5.1430     4.9303    -1.9540 H       
  37 H37           -3.6182     2.3839     0.0724 H       
  38 H38           -4.5203     3.8011     0.0894 H       
  39 H39            2.1038    -2.5276     0.4826 H       
  40 H40            0.3240    -2.5436     0.5000 H       
  41 H41            2.3239    -2.6755    -4.2436 H       
  42 H42            2.3448    -4.3688    -3.6546 H       
  43 H43            0.0146    -2.6961    -4.2211 H       
  44 H44            0.0355    -4.3895    -3.6321 H       
@<TRIPOS>BOND
   1    1    7 ar
   2    1    2 ar
   3    1    6 ar
   4    2    3 ar
   5    2   10 ar
   6    3   11 1
   7    3    4 ar
   8    4    5 ar
   9    4   30 1
  10    5   17 1
  11    5    6 ar
  12    7    8 ar
  13    7   31 1
  14    8    9 ar
  15    8   20 1
  16    9   10 ar
  17    9   32 1
  18   10   33 1
  19   11   12 ar
  20   11   16 ar
  21   12   13 ar
  22   12   34 1
  23   13   14 ar
  24   13   35 1
  25   14   15 ar
  26   14   21 1
  27   15   16 ar
  28   15   36 1
  29   16   29 1
  30   17   18 am
  31   17   19 2
  32   18   37 1
  33   18   38 1
  34   20   22 1
  35   20   39 1
  36   20   40 1
  37   22   23 am
  38   22   26 am
  39   23   24 1
  40   23   27 2
  41   24   25 1
  42   24   41 1
  43   24   42 1
  44   25   26 1
  45   25   43 1
  46   25   44 1
  47   26   28 2

#	End of record

