#	Name: ASD01913268
#	Creating user name:	WinNT
#	Creation time:	15. 06. 2019 20:01

#	Modifying user name:	WinNT
#	Modification time:	15. 06. 2019 20:01

#	Program:	/corina/corina34_cracker 3.40 0067  02.08.2006

@<TRIPOS>MOLECULE
ASD01913268
  49   52    0    0    0
SMALL
NO_CHARGES


@<TRIPOS>ATOM
   1 C1            -0.0895     1.4762    -0.2764 C.3     
   2 N2            -0.0403     0.0111    -0.2448 N.am    
   3 C3             1.3432    -0.3748    -0.5405 C.3     
   4 C4             2.1363     0.8897    -0.7533 C.ar    
   5 C5             3.4726     1.0880    -1.0560 C.ar    
   6 C6             3.9670     2.3696    -1.2030 C.ar    
   7 C7             3.1261     3.4560    -1.0480 C.ar    
   8 C8             1.7925     3.2588    -0.7463 C.ar    
   9 C9             1.2966     1.9747    -0.5985 C.ar    
  10 C10           -1.0694    -0.8216     0.0083 C.2     
  11 C11           -0.8849    -2.2814    -0.1129 C.ar    
  12 C12           -1.9822    -3.1346    -0.0019 C.ar    
  13 C13           -1.8018    -4.5109    -0.1170 C.ar    
  14 C14           -0.5162    -5.0288    -0.3439 C.ar    
  15 C15            0.5682    -4.1706    -0.4526 C.ar    
  16 C16            0.3894    -2.8083    -0.3445 C.ar    
  17 O17           -2.1498    -0.3706     0.3362 O.2     
  18 O18           -0.3349    -6.3683    -0.4563 O.3     
  19 C19            0.9994    -6.8252    -0.6867 C.3     
  20 C20           -2.9229    -5.3946    -0.0040 C.1     
  21 C21           -3.8420    -6.1191     0.0887 C.1     
  22 C22           -4.9631    -7.0028     0.2018 C.ar    
  23 C23           -4.7824    -8.3840     0.0863 C.ar    
  24 C24           -5.8656    -9.2295     0.1960 C.ar    
  25 C25           -7.1322    -8.7125     0.4204 C.ar    
  26 C26           -7.3179    -7.3440     0.5358 C.ar    
  27 C27           -6.2414    -6.4883     0.4337 C.ar    
  28 C28           -5.6726   -10.7189     0.0713 C.3     
  29 F29           -8.1899    -9.5463     0.5266 F       
  30 H30           -0.7885     1.8059    -1.0451 H       
  31 H31           -0.4022     1.8565     0.6961 H       
  32 H32            1.7579    -0.9344     0.2979 H       
  33 H33            1.3715    -0.9850    -1.4433 H       
  34 H34            4.1297     0.2395    -1.1772 H       
  35 H35            5.0098     2.5228    -1.4384 H       
  36 H36            3.5117     4.4584    -1.1623 H       
  37 H37            1.1359     4.1076    -0.6250 H       
  38 H38           -2.9682    -2.7299     0.1729 H       
  39 H39            1.5558    -4.5714    -0.6270 H       
  40 H40            1.2374    -2.1455    -0.4346 H       
  41 H41            1.0039    -7.9130    -0.7564 H       
  42 H42            1.3734    -6.3999    -1.6179 H       
  43 H43            1.6385    -6.5114     0.1386 H       
  44 H44           -3.7962    -8.7879    -0.0888 H       
  45 H45           -8.3070    -6.9473     0.7106 H       
  46 H46           -6.3867    -5.4223     0.5282 H       
  47 H47           -5.4726   -11.1430     1.0553 H       
  48 H48           -6.5754   -11.1689    -0.3417 H       
  49 H49           -4.8302   -10.9220    -0.5899 H       
@<TRIPOS>BOND
   1    1    2 1
   2    1    9 1
   3    1   30 1
   4    1   31 1
   5    2    3 1
   6    2   10 am
   7    3    4 1
   8    3   32 1
   9    3   33 1
  10    4    5 ar
  11    4    9 ar
  12    5    6 ar
  13    5   34 1
  14    6    7 ar
  15    6   35 1
  16    7    8 ar
  17    7   36 1
  18    8    9 ar
  19    8   37 1
  20   10   11 1
  21   10   17 2
  22   11   12 ar
  23   11   16 ar
  24   12   13 ar
  25   12   38 1
  26   13   14 ar
  27   13   20 1
  28   14   15 ar
  29   14   18 1
  30   15   16 ar
  31   15   39 1
  32   16   40 1
  33   18   19 1
  34   19   41 1
  35   19   42 1
  36   19   43 1
  37   20   21 3
  38   21   22 1
  39   22   23 ar
  40   22   27 ar
  41   23   24 ar
  42   23   44 1
  43   24   25 ar
  44   24   28 1
  45   25   26 ar
  46   25   29 1
  47   26   27 ar
  48   26   45 1
  49   27   46 1
  50   28   47 1
  51   28   48 1
  52   28   49 1

#	End of record

