#	Name: ASD00451035
#	Creating user name:	WinNT
#	Creation time:	15. 06. 2019 18:36

#	Modifying user name:	WinNT
#	Modification time:	15. 06. 2019 18:36

#	Program:	/corina/corina34_cracker 3.40 0067  02.08.2006

@<TRIPOS>MOLECULE
ASD00451035
  61   65    0    0    0
SMALL
NO_CHARGES


@<TRIPOS>ATOM
   1 C1             0.0433     1.2778     0.1074 C.ar    
   2 C2            -0.0146    -0.0974     0.0639 C.ar    
   3 C3             1.2945     1.9265     0.0430 C.ar    
   4 N4            -1.1330     2.0280     0.2091 N.am    
   5 C5             1.1468    -0.8572    -0.0430 C.ar    
   6 C6             1.3902     3.3269     0.0852 C.ar    
   7 C7             2.4754     1.1524    -0.0657 C.ar    
   8 C8             2.3817    -0.2537    -0.1074 C.ar    
   9 C9             2.6134     3.9211     0.0213 C.ar    
  10 C10            3.7201     1.8001    -0.1293 C.ar    
  11 O11            3.5061    -1.0097    -0.2107 O.3     
  12 C12            3.7755     3.1597    -0.0856 C.ar    
  13 C13            4.2259    -1.2390     0.9176 C.ar    
  14 C14            5.4460    -1.9086     0.8648 C.ar    
  15 C15            3.7677    -0.8060     2.1599 C.ar    
  16 C16            6.1580    -2.1257     2.0447 C.ar    
  17 N17            6.1950    -2.4635    -0.1708 N.am    
  18 C18            4.5280    -1.0575     3.2843 C.ar    
  19 N19            7.3171    -2.8053     1.6913 N.am    
  20 N20            5.6784    -1.6988     3.2032 N.ar    
  21 C21            7.3137    -2.9946     0.3587 C.2     
  22 C22            8.3669    -3.2430     2.6146 C.3     
  23 O23            8.1878    -3.5600    -0.2714 O.2     
  24 C24           -2.2612     1.5967    -0.3889 C.2     
  25 O25           -2.2332     0.6116    -1.1013 O.2     
  26 N26           -3.4203     2.2571    -0.1974 N.am    
  27 C27           -4.6082     1.7584    -0.7434 C.ar    
  28 C28            5.8288    -2.4691    -1.5893 C.3     
  29 C29           -5.8055     1.9047    -0.0541 C.ar    
  30 C30           -6.9793     1.4122    -0.5920 C.ar    
  31 C31           -6.9669     0.7734    -1.8164 C.ar    
  32 C32           -5.7722     0.6239    -2.5119 C.ar    
  33 C33           -4.5923     1.1224    -1.9763 C.ar    
  34 C34            6.3832    -1.2129    -2.2641 C.3     
  35 S35           -5.7568    -0.1912    -4.0740 S.3     
  36 C36           -7.4987    -0.6333    -4.3207 C.3     
  37 F37           -8.2781     0.5284    -4.3281 F       
  38 F38           -7.6422    -1.2989    -5.5428 F       
  39 F39           -7.9191    -1.4704    -3.2816 F       
  40 H40           -0.9730    -0.5926     0.1136 H       
  41 H41           -1.1367     2.8586     0.7100 H       
  42 H42            1.0778    -1.9345    -0.0755 H       
  43 H43            0.4978     3.9295     0.1676 H       
  44 H44            2.6841     4.9983     0.0537 H       
  45 H45            4.6289     1.2224    -0.2119 H       
  46 H46            4.7339     3.6551    -0.1347 H       
  47 H47            2.8285    -0.2792     2.2424 H       
  48 H48            4.1748    -0.7228     4.2485 H       
  49 H49            8.1409    -4.2477     2.9717 H       
  50 H50            9.3264    -3.2485     2.0974 H       
  51 H51            8.4145    -2.5585     3.4615 H       
  52 H52           -3.4311     3.0782     0.3190 H       
  53 H53            6.2471    -3.3540    -2.0691 H       
  54 H54            4.7430    -2.4834    -1.6842 H       
  55 H55           -5.8188     2.4038     0.9036 H       
  56 H56           -7.9085     1.5268    -0.0535 H       
  57 H57           -7.8859     0.3893    -2.2339 H       
  58 H58           -3.6629     1.0077    -2.5142 H       
  59 H59            5.9649    -0.3281    -1.7844 H       
  60 H60            7.4690    -1.1986    -2.1693 H       
  61 H61            6.1108    -1.2171    -3.3195 H       
@<TRIPOS>BOND
   1    1    2 ar
   2    1    3 ar
   3    1    4 1
   4    2    5 ar
   5    2   40 1
   6    3    6 ar
   7    3    7 ar
   8    4   24 am
   9    4   41 1
  10    5    8 ar
  11    5   42 1
  12    6    9 ar
  13    6   43 1
  14    7    8 ar
  15    7   10 ar
  16    8   11 1
  17    9   12 ar
  18    9   44 1
  19   10   12 ar
  20   10   45 1
  21   11   13 1
  22   12   46 1
  23   13   15 ar
  24   13   14 ar
  25   14   16 ar
  26   14   17 1
  27   15   18 ar
  28   15   47 1
  29   16   19 1
  30   16   20 ar
  31   17   21 am
  32   17   28 1
  33   18   20 ar
  34   18   48 1
  35   19   22 1
  36   19   21 am
  37   21   23 2
  38   22   49 1
  39   22   50 1
  40   22   51 1
  41   24   25 2
  42   24   26 am
  43   26   27 1
  44   26   52 1
  45   27   29 ar
  46   27   33 ar
  47   28   34 1
  48   28   53 1
  49   28   54 1
  50   29   30 ar
  51   29   55 1
  52   30   31 ar
  53   30   56 1
  54   31   32 ar
  55   31   57 1
  56   32   33 ar
  57   32   35 1
  58   33   58 1
  59   34   59 1
  60   34   60 1
  61   34   61 1
  62   35   36 1
  63   36   37 1
  64   36   38 1
  65   36   39 1

#	End of record

