#	Name: ASD01230253
#	Creating user name:	WinNT
#	Creation time:	15. 06. 2019 19:12

#	Modifying user name:	WinNT
#	Modification time:	15. 06. 2019 19:12

#	Program:	/corina/corina34_cracker 3.40 0067  02.08.2006

@<TRIPOS>MOLECULE
ASD01230253
  46   49    0    0    0
SMALL
NO_CHARGES


@<TRIPOS>ATOM
   1 S1            -0.0204     1.6504     0.0111 S.o2    
   2 N2             0.0021    -0.0041     0.0020 N.am    
   3 C3             1.0235    -0.6878    -0.4548 C.2     
   4 N4             2.1701    -0.1524    -0.9681 N.pl3   
   5 C5             2.3936     1.2846    -1.1466 C.3     
   6 C6             1.7500     2.0752    -0.0035 C.3     
   7 C7             0.8940    -2.1592    -0.3969 C.2     
   8 C8             1.9449    -2.9428    -0.8212 C.2     
   9 C9             3.1089    -2.3205    -1.2949 C.2     
  10 C10            3.1953    -0.9800    -1.3565 C.2     
  11 C11           -0.7313    -2.6172     1.4412 C.ar    
  12 C12           -0.3492    -2.7831     0.1111 C.ar    
  13 C13           -1.1584    -3.5481    -0.7377 C.ar    
  14 C14           -2.3088    -4.1096    -0.2176 C.ar    
  15 C15           -2.6229    -3.8989     1.1197 C.ar    
  16 N16           -1.8370    -3.1710     1.8964 N.ar    
  17 O17           -3.7512    -4.4477     1.6362 O.3     
  18 C18           -4.0216    -4.1964     3.0167 C.3     
  19 C19           -5.5340    -4.1937     3.2479 C.3     
  20 C20           -5.8235    -3.9247     4.7260 C.3     
  21 C21           -5.1790    -5.0190     5.5793 C.3     
  22 C22           -3.6666    -5.0217     5.3481 C.3     
  23 C23           -3.3771    -5.2907     3.8700 C.3     
  24 Cl24           4.4533    -3.2917    -1.8079 Cl      
  25 O25           -0.6346     2.0064    -1.2198 O.2     
  26 O26           -0.6110     1.9931     1.2573 O.2     
  27 H27            3.4654     1.4826    -1.1619 H       
  28 H28            1.9566     1.6015    -2.0935 H       
  29 H29            1.8741     3.1444    -0.1755 H       
  30 H30            2.2071     1.7951     0.9456 H       
  31 H31            1.8733    -4.0200    -0.7891 H       
  32 H32            4.1078    -0.5360    -1.7262 H       
  33 H33           -0.1128    -2.0330     2.1064 H       
  34 H34           -0.8902    -3.6953    -1.7734 H       
  35 H35           -2.9568    -4.7053    -0.8435 H       
  36 H36           -3.6094    -3.2271     3.2971 H       
  37 H37           -5.9931    -3.4142     2.6400 H       
  38 H38           -5.9461    -5.1631     2.9676 H       
  39 H39           -5.4114    -2.9554     5.0064 H       
  40 H40           -6.9010    -3.9228     4.8907 H       
  41 H41           -5.3853    -4.8273     6.6323 H       
  42 H42           -5.5911    -5.9884     5.2989 H       
  43 H43           -3.2545    -4.0523     5.6285 H       
  44 H44           -3.2075    -5.8013     5.9560 H       
  45 H45           -3.7892    -6.2600     3.5896 H       
  46 H46           -2.2996    -5.2926     3.7053 H       
@<TRIPOS>BOND
   1    1    2 am
   2    1    6 1
   3    1   25 2
   4    1   26 2
   5    2    3 2
   6    3    4 1
   7    3    7 1
   8    4    5 1
   9    4   10 1
  10    5    6 1
  11    5   27 1
  12    5   28 1
  13    6   29 1
  14    6   30 1
  15    7    8 2
  16    7   12 1
  17    8    9 1
  18    8   31 1
  19    9   10 2
  20    9   24 1
  21   10   32 1
  22   11   12 ar
  23   11   16 ar
  24   11   33 1
  25   12   13 ar
  26   13   14 ar
  27   13   34 1
  28   14   15 ar
  29   14   35 1
  30   15   16 ar
  31   15   17 1
  32   17   18 1
  33   18   19 1
  34   18   23 1
  35   18   36 1
  36   19   20 1
  37   19   37 1
  38   19   38 1
  39   20   21 1
  40   20   39 1
  41   20   40 1
  42   21   22 1
  43   21   41 1
  44   21   42 1
  45   22   23 1
  46   22   43 1
  47   22   44 1
  48   23   45 1
  49   23   46 1

#	End of record

