#	Name: ASD02188002
#	Creating user name:	WinNT
#	Creation time:	15. 06. 2019 20:18

#	Modifying user name:	WinNT
#	Modification time:	15. 06. 2019 20:18

#	Program:	/corina/corina34_cracker 3.40 0067  02.08.2006

@<TRIPOS>MOLECULE
ASD02188002
  45   46    0    0    0
SMALL
NO_CHARGES


@<TRIPOS>ATOM
   1 P1            -0.0180     1.4758     0.0102 P.3     
   2 O2             0.0021    -0.0041     0.0020 O.2     
   3 O3             1.4924     2.0330    -0.0013 O.3     
   4 O4            -1.6956     0.2531     3.0739 O.3     
   5 O5            -0.7967     2.0091    -1.2942 O.3     
   6 O6            -0.7716     1.9950     1.3348 O.3     
   7 P7            -2.0773     1.5092     2.1417 P.3     
   8 O8            -3.1301     1.1090     1.1816 O.2     
   9 O9            -2.6194     2.7146     3.0611 O.3     
  10 C10           -3.8270     2.6317     3.8206 C.3     
  11 C11           -4.0455     3.9443     4.5759 C.3     
  12 C12           -5.3190     3.8569     5.3769 C.2     
  13 C13           -5.4085     3.4178     6.6333 C.2     
  14 C14           -6.6864     3.4287     7.1652 C.2     
  15 C15           -7.6346     3.8767     6.3409 C.2     
  16 S16           -6.9133     4.3254     4.8007 S.3     
  17 C17           -4.2095     2.9452     7.4142 C.3     
  18 C18           -6.9840     2.9689     8.5692 C.3     
  19 C19           -6.3455     6.1300    11.2385 C.ar    
  20 N20           -7.5116     6.0376    10.6318 N.ar    
  21 C21           -7.7551     5.0490     9.7766 C.ar    
  22 C22           -6.7539     4.1070     9.5299 C.ar    
  23 C23           -5.5482     4.2443    10.1886 C.ar    
  24 N24           -5.3811     5.2575    11.0272 N.ar    
  25 C25           -6.1062     7.2687    12.1961 C.3     
  26 N26           -8.9824     4.9546     9.1408 N.pl3   
  27 H27            2.0070     1.7589    -0.7727 H       
  28 H28           -1.0099     0.4433     3.7286 H       
  29 H29           -0.8486     2.9728    -1.3546 H       
  30 H30           -4.6671     2.4547     3.1491 H       
  31 H31           -3.7522     1.8105     4.5334 H       
  32 H32           -3.2053     4.1213     5.2474 H       
  33 H33           -4.1202     4.7655     3.8631 H       
  34 H34           -8.6841     3.9553     6.5833 H       
  35 H35           -3.7685     3.7872     7.9478 H       
  36 H36           -4.5191     2.1835     8.1298 H       
  37 H37           -3.4735     2.5231     6.7299 H       
  38 H38           -8.0225     2.6441     8.6327 H       
  39 H39           -6.3270     2.1380     8.8263 H       
  40 H40           -4.7511     3.5347    10.0231 H       
  41 H41           -6.4053     6.9680    13.2003 H       
  42 H42           -5.0476     7.5283    12.1948 H       
  43 H43           -6.6927     8.1336    11.8860 H       
  44 H44           -9.6723     5.6130     9.3181 H       
  45 H45           -9.1517     4.2302     8.5183 H       
@<TRIPOS>BOND
   1    1    2 2
   2    1    3 1
   3    1    5 1
   4    1    6 1
   5    3   27 1
   6    4    7 1
   7    4   28 1
   8    5   29 1
   9    6    7 1
  10    7    8 2
  11    7    9 1
  12    9   10 1
  13   10   11 1
  14   10   30 1
  15   10   31 1
  16   11   12 1
  17   11   32 1
  18   11   33 1
  19   12   13 2
  20   12   16 1
  21   13   14 1
  22   13   17 1
  23   14   15 2
  24   14   18 1
  25   15   16 1
  26   15   34 1
  27   17   35 1
  28   17   36 1
  29   17   37 1
  30   18   22 1
  31   18   38 1
  32   18   39 1
  33   19   20 ar
  34   19   24 ar
  35   19   25 1
  36   20   21 ar
  37   21   22 ar
  38   21   26 1
  39   22   23 ar
  40   23   24 ar
  41   23   40 1
  42   25   41 1
  43   25   42 1
  44   25   43 1
  45   26   44 1
  46   26   45 1

#	End of record

