#	Name: ASD07300917
#	Creating user name:	WinNT
#	Creation time:	15. 06. 2019 21:10

#	Modifying user name:	WinNT
#	Modification time:	15. 06. 2019 21:10

#	Program:	/corina/corina34_cracker 3.40 0067  02.08.2006

@<TRIPOS>MOLECULE
ASD07300917
  54   58    0    0    0
SMALL
NO_CHARGES


@<TRIPOS>ATOM
   1 N1            -0.3627     1.5814     0.6074 N.am    
   2 C2            -0.1931     0.2352     0.6213 C.2     
   3 N3             0.9627    -0.3361     0.4489 N.2     
   4 C4             2.0816     0.3760     0.2422 C.2     
   5 C5             2.0050     1.7774     0.2108 C.2     
   6 C6             0.6962     2.4006     0.4072 C.2     
   7 N7             3.3853     0.0542     0.0375 N.pl3   
   8 N8             4.1121     1.2410    -0.1195 N.2     
   9 C9             3.3062     2.2619    -0.0188 C.2     
  10 O10            0.5641     3.6116     0.3906 O.2     
  11 C11            3.9367    -1.3022    -0.0103 C.3     
  12 C12            4.6968    -1.4978    -1.3236 C.3     
  13 C13            5.2727    -2.9144    -1.3736 C.3     
  14 C14            6.2282    -3.1182    -0.1961 C.3     
  15 C15            5.4681    -2.9227     1.1173 C.3     
  16 C16            4.8922    -1.5061     1.1672 C.3     
  17 C17           -1.3999    -0.6386     0.8476 C.3     
  18 C18           -1.0623    -2.0095     1.4571 C.3     
  19 C19           -0.8956    -2.5211     0.0165 C.3     
  20 C20           -1.8553    -1.3977    -0.4099 C.3     
  21 C21           -1.4605    -0.7231    -1.6984 C.2     
  22 C22           -0.2668    -0.8970    -2.2663 C.2     
  23 S23           -0.2186     0.0623    -3.7431 S.3     
  24 C24           -1.8132     0.6069    -3.4542 C.2     
  25 N25           -2.2712     0.0841    -2.3593 N.2     
  26 N26           -2.5161     1.4762    -4.2736 N.pl3   
  27 C27           -3.8815     1.8729    -3.9206 C.3     
  28 C28           -1.8937     1.9982    -5.4927 C.3     
  29 F29            6.7548    -4.4135    -0.2417 F       
  30 F30            7.2703    -2.1881    -0.2747 F       
  31 H31           -1.2470     1.9582     0.7375 H       
  32 H32            3.5892     3.3011    -0.0981 H       
  33 H33            3.1248    -2.0269     0.0510 H       
  34 H34            4.0161    -1.3525    -2.1625 H       
  35 H35            5.5087    -0.7731    -1.3849 H       
  36 H36            4.4608    -3.6390    -1.3123 H       
  37 H37            5.8142    -3.0537    -2.3092 H       
  38 H38            4.6562    -3.6474     1.1785 H       
  39 H39            6.1488    -3.0679     1.9561 H       
  40 H40            5.7041    -0.7814     1.1059 H       
  41 H41            4.3507    -1.3668     2.1028 H       
  42 H42           -2.2082    -0.1190     1.3622 H       
  43 H43           -0.1365    -2.0155     2.0324 H       
  44 H44           -1.8956    -2.4678     1.9895 H       
  45 H45            0.1151    -2.4037    -0.3744 H       
  46 H46           -1.2977    -3.5219    -0.1407 H       
  47 H47           -2.9055    -1.6887    -0.3879 H       
  48 H48            0.5315    -1.5175    -1.8869 H       
  49 H49           -4.1713     1.3878    -2.9885 H       
  50 H50           -3.9246     2.9549    -3.7957 H       
  51 H51           -4.5644     1.5713    -4.7148 H       
  52 H52           -2.1087     1.3289    -6.3257 H       
  53 H53           -2.2941     2.9885    -5.7097 H       
  54 H54           -0.8152     2.0657    -5.3499 H       
@<TRIPOS>BOND
   1    1    2 1
   2    1    6 am
   3    1   31 1
   4    2    3 2
   5    2   17 1
   6    3    4 1
   7    4    5 2
   8    4    7 1
   9    5    6 1
  10    5    9 1
  11    6   10 2
  12    7    8 1
  13    7   11 1
  14    8    9 2
  15    9   32 1
  16   11   12 1
  17   11   16 1
  18   11   33 1
  19   12   13 1
  20   12   34 1
  21   12   35 1
  22   13   14 1
  23   13   36 1
  24   13   37 1
  25   14   15 1
  26   14   29 1
  27   14   30 1
  28   15   16 1
  29   15   38 1
  30   15   39 1
  31   16   40 1
  32   16   41 1
  33   17   18 1
  34   17   20 1
  35   17   42 1
  36   18   19 1
  37   18   43 1
  38   18   44 1
  39   19   20 1
  40   19   45 1
  41   19   46 1
  42   20   21 1
  43   20   47 1
  44   21   22 2
  45   21   25 1
  46   22   23 1
  47   22   48 1
  48   23   24 1
  49   24   25 2
  50   24   26 1
  51   26   27 1
  52   26   28 1
  53   27   49 1
  54   27   50 1
  55   27   51 1
  56   28   52 1
  57   28   53 1
  58   28   54 1

#	End of record

