#	Name: ASD05313119
#	Creating user name:	WinNT
#	Creation time:	15. 06. 2019 20:58

#	Modifying user name:	WinNT
#	Modification time:	15. 06. 2019 20:58

#	Program:	/corina/corina34_cracker 3.40 0067  02.08.2006

@<TRIPOS>MOLECULE
ASD05313119
  37   40    0    0    0
SMALL
NO_CHARGES


@<TRIPOS>ATOM
   1 C1            -0.0725     0.8207     1.0205 C.2     
   2 C2             0.1130    -0.6162     0.5946 C.3     
   3 N3             0.9304     1.7334     1.0465 N.pl3   
   4 N4             1.4565    -0.7170    -0.0061 N.am    
   5 C5             2.5708    -0.0354     0.6700 C.3     
   6 C6             2.3172     1.4768     0.6617 C.3     
   7 N7            -0.9039     2.6449     1.7021 N.2     
   8 N8            -1.1574     1.4127     1.4217 N.2     
   9 C9             0.3724     2.8938     1.4895 C.2     
  10 C10            1.0659     4.1839     1.6954 C.ar    
  11 C11            0.3569     5.2948     2.1576 C.ar    
  12 N12            2.3688     4.2890     1.4464 N.ar    
  13 N13            0.9810     6.4430     2.3398 N.ar    
  14 C14            2.2750     6.5423     2.0857 C.ar    
  15 C15            2.9831     5.4424     1.6322 C.ar    
  16 C16            1.6574    -1.4143    -1.1419 C.2     
  17 O17            2.7496    -1.4049    -1.6758 O.2     
  18 C18            0.5510    -2.1896    -1.7376 C.ar    
  19 C19            0.3199    -2.1373    -3.1154 C.ar    
  20 C20           -0.7162    -2.8653    -3.6662 C.ar    
  21 C21           -1.5259    -3.6459    -2.8545 C.ar    
  22 C22           -1.2998    -3.7003    -1.4877 C.ar    
  23 C23           -0.2649    -2.9824    -0.9277 C.ar    
  24 F24           -2.5390    -4.3557    -3.3978 F       
  25 Cl25          -1.0062    -2.8028    -5.3767 Cl      
  26 Cl26           1.3326    -1.1593    -4.1311 Cl      
  27 H27            0.0428    -1.2732     1.4615 H       
  28 H28           -0.6446    -0.8870    -0.1409 H       
  29 H29            2.6418    -0.3869     1.6993 H       
  30 H30            3.5017    -0.2514     0.1457 H       
  31 H31            2.4963     1.8705    -0.3389 H       
  32 H32            2.9877     1.9626     1.3705 H       
  33 H33           -0.6999     5.2144     2.3650 H       
  34 H34            2.7820     7.4839     2.2359 H       
  35 H35            4.0406     5.5282     1.4305 H       
  36 H36           -1.9338    -4.3097    -0.8607 H       
  37 H37           -0.0881    -3.0295     0.1367 H       
@<TRIPOS>BOND
   1    1    2 1
   2    1    3 1
   3    1    8 2
   4    2    4 1
   5    2   27 1
   6    2   28 1
   7    3    6 1
   8    3    9 1
   9    4    5 1
  10    4   16 am
  11    5    6 1
  12    5   29 1
  13    5   30 1
  14    6   31 1
  15    6   32 1
  16    7    8 1
  17    7    9 2
  18    9   10 1
  19   10   11 ar
  20   10   12 ar
  21   11   13 ar
  22   11   33 1
  23   12   15 ar
  24   13   14 ar
  25   14   15 ar
  26   14   34 1
  27   15   35 1
  28   16   17 2
  29   16   18 1
  30   18   19 ar
  31   18   23 ar
  32   19   20 ar
  33   19   26 1
  34   20   21 ar
  35   20   25 1
  36   21   22 ar
  37   21   24 1
  38   22   23 ar
  39   22   36 1
  40   23   37 1

#	End of record

