#	Name: ASD01814483
#	Creating user name:	WinNT
#	Creation time:	15. 06. 2019 19:32

#	Modifying user name:	WinNT
#	Modification time:	15. 06. 2019 19:32

#	Program:	/corina/corina34_cracker 3.40 0067  02.08.2006

@<TRIPOS>MOLECULE
ASD01814483
  57   62    0    0    0
SMALL
NO_CHARGES


@<TRIPOS>ATOM
   1 C1            -0.0167     1.3806     0.0096 C.ar    
   2 C2             0.0021    -0.0041     0.0020 C.ar    
   3 N3             1.1326    -0.6807    -0.0124 N.ar    
   4 C4             2.3086    -0.0708    -0.0203 C.ar    
   5 C5             2.3609     1.3371    -0.0133 C.ar    
   6 C6             1.1832     2.0749     0.0019 C.ar    
   7 N7             3.4842    -0.7901    -0.0350 N.pl3   
   8 N8             4.6484    -0.2530    -0.0423 N.2     
   9 C9             4.8548     1.0374    -0.0373 C.2     
  10 C10            3.6946     1.9629    -0.0222 C.2     
  11 C11            3.3986    -2.2526    -0.0420 C.3     
  12 C12            3.3563    -2.7465    -1.4651 C.ar    
  13 C13            4.5322    -3.0459    -2.1378 C.ar    
  14 C14            4.4497    -3.4968    -3.4441 C.ar    
  15 C15            3.1957    -3.6336    -4.0350 C.ar    
  16 N16            2.0948    -3.3360    -3.3571 N.ar    
  17 C17            2.1447    -2.9110    -2.1111 C.ar    
  18 C18            3.0904    -4.1156    -5.4341 C.ar    
  19 C19            6.0311     1.9109    -0.0426 C.2     
  20 N20            5.5598     3.1763    -0.0315 N.am    
  21 N21            4.1628     3.1748    -0.0195 N.2     
  22 O22            7.2005     1.5647    -0.0542 O.2     
  23 C23            6.3950     4.3800    -0.0312 C.3     
  24 C24            6.0837     5.2193    -1.2742 C.3     
  25 C25            6.9052     6.5111    -1.2234 C.3     
  26 C26            6.5888     7.2571     0.0755 C.3     
  27 O27            6.8715     6.4097     1.1909 O.3     
  28 C28            6.0983     5.2083     1.2216 C.3     
  29 C29            1.8411    -4.2591    -6.0435 C.ar    
  30 C30            1.7965    -4.7121    -7.3511 C.ar    
  31 C31            2.9785    -5.0051    -8.0060 C.ar    
  32 N32            4.1435    -4.8597    -7.4045 N.ar    
  33 C33            4.2361    -4.4271    -6.1639 C.ar    
  34 C34            2.9352    -5.4989    -9.4292 C.3     
  35 H35           -0.9559     1.9138     0.0170 H       
  36 H36           -0.9338    -0.5431     0.0084 H       
  37 H37            1.2022     3.1547     0.0079 H       
  38 H38            4.2706    -2.6700     0.4617 H       
  39 H39            2.4937    -2.5661     0.4785 H       
  40 H40            5.4904    -2.9295    -1.6534 H       
  41 H41            5.3451    -3.7388    -3.9975 H       
  42 H42            1.2275    -2.6782    -1.5906 H       
  43 H43            7.4467     4.0936    -0.0391 H       
  44 H44            6.3455     4.6556    -2.1697 H       
  45 H45            5.0215     5.4631    -1.2929 H       
  46 H46            7.9675     6.2687    -1.2547 H       
  47 H47            6.6488     7.1397    -2.0762 H       
  48 H48            7.2023     8.1559     0.1372 H       
  49 H49            5.5348     7.5346     0.0878 H       
  50 H50            5.0379     5.4590     1.2489 H       
  51 H51            6.3584     4.6311     2.1090 H       
  52 H52            0.9333    -4.0231    -5.5081 H       
  53 H53            0.8488    -4.8355    -7.8540 H       
  54 H54            5.2080    -4.3210    -5.7052 H       
  55 H55            2.9778    -4.6489   -10.1102 H       
  56 H56            3.7866    -6.1543    -9.6125 H       
  57 H57            2.0098    -6.0507    -9.5943 H       
@<TRIPOS>BOND
   1    1    2 ar
   2    1    6 ar
   3    1   35 1
   4    2    3 ar
   5    2   36 1
   6    3    4 ar
   7    4    5 ar
   8    4    7 1
   9    5    6 ar
  10    5   10 1
  11    6   37 1
  12    7    8 1
  13    7   11 1
  14    8    9 2
  15    9   10 1
  16    9   19 1
  17   10   21 2
  18   11   12 1
  19   11   38 1
  20   11   39 1
  21   12   13 ar
  22   12   17 ar
  23   13   14 ar
  24   13   40 1
  25   14   15 ar
  26   14   41 1
  27   15   16 ar
  28   15   18 1
  29   16   17 ar
  30   17   42 1
  31   18   29 ar
  32   18   33 ar
  33   19   20 am
  34   19   22 2
  35   20   21 1
  36   20   23 1
  37   23   24 1
  38   23   28 1
  39   23   43 1
  40   24   25 1
  41   24   44 1
  42   24   45 1
  43   25   26 1
  44   25   46 1
  45   25   47 1
  46   26   27 1
  47   26   48 1
  48   26   49 1
  49   27   28 1
  50   28   50 1
  51   28   51 1
  52   29   30 ar
  53   29   52 1
  54   30   31 ar
  55   30   53 1
  56   31   32 ar
  57   31   34 1
  58   32   33 ar
  59   33   54 1
  60   34   55 1
  61   34   56 1
  62   34   57 1

#	End of record

