#	Name: ASD00171064
#	Creating user name:	WinNT
#	Creation time:	15. 06. 2019 18:32

#	Modifying user name:	WinNT
#	Modification time:	15. 06. 2019 18:32

#	Program:	/corina/corina34_cracker 3.40 0067  02.08.2006

@<TRIPOS>MOLECULE
ASD00171064
  34   35    0    0    0
SMALL
NO_CHARGES


@<TRIPOS>ATOM
   1 C1            -0.0167     1.3798     0.0096 C.ar    
   2 C2             0.0021    -0.0041     0.0020 C.ar    
   3 C3             1.2058    -0.6870    -0.0131 C.ar    
   4 C4             2.3968     0.0078    -0.0203 C.ar    
   5 C5             2.3862     1.4062    -0.0127 C.ar    
   6 C6             1.1658     2.0890     0.0021 C.ar    
   7 C7             3.6529     2.1555    -0.0202 C.2     
   8 O8             4.7092     1.5604    -0.0331 O.2     
   9 C9             3.6370     3.6624    -0.0120 C.3     
  10 C10            3.6809     4.1481     1.4113 C.2     
  11 S11            4.9628     5.0232     1.5486 S.o     
  12 C12            5.6076     4.9145    -0.0902 C.2     
  13 C13            4.8063     4.1690    -0.7941 C.2     
  14 C14            6.8685     5.5721    -0.5889 C.3     
  15 C15            5.0337     3.8489    -2.2490 C.3     
  16 N16            2.7838     3.8790     2.3804 N.am    
  17 C17           -1.2950    -0.7713     0.0108 C.3     
  18 F18           -1.7094    -1.0017    -1.3054 F       
  19 F19           -1.1083    -1.9954     0.6619 F       
  20 F20           -2.2713    -0.0291     0.6840 F       
  21 H21           -0.9600     1.9056     0.0169 H       
  22 H22            1.2122    -1.7670    -0.0190 H       
  23 H23            3.3353    -0.5266    -0.0314 H       
  24 H24            1.1495     3.1689     0.0077 H       
  25 H25            2.7172     4.0122    -0.4806 H       
  26 H26            4.4713     6.2742     1.5980 H       
  27 H27            7.3314     6.1329     0.2231 H       
  28 H28            7.5606     4.8085    -0.9438 H       
  29 H29            6.6255     6.2505    -1.4067 H       
  30 H30            5.9490     4.3334    -2.5889 H       
  31 H31            5.1260     2.7699    -2.3735 H       
  32 H32            4.1906     4.2117    -2.8369 H       
  33 H33            2.0151     3.3195     2.1880 H       
  34 H34            2.9069     4.2446     3.2704 H       
@<TRIPOS>BOND
   1    1    2 ar
   2    1    6 ar
   3    1   21 1
   4    2    3 ar
   5    2   17 1
   6    3    4 ar
   7    3   22 1
   8    4    5 ar
   9    4   23 1
  10    5    6 ar
  11    5    7 1
  12    6   24 1
  13    7    8 2
  14    7    9 1
  15    9   10 1
  16    9   13 1
  17    9   25 1
  18   10   11 2
  19   10   16 am
  20   11   12 1
  21   11   26 1
  22   12   13 2
  23   12   14 1
  24   13   15 1
  25   14   27 1
  26   14   28 1
  27   14   29 1
  28   15   30 1
  29   15   31 1
  30   15   32 1
  31   16   33 1
  32   16   34 1
  33   17   18 1
  34   17   19 1
  35   17   20 1

#	End of record

