#	Name: ASD01870499
#	Creating user name:	WinNT
#	Creation time:	15. 06. 2019 19:39

#	Modifying user name:	WinNT
#	Modification time:	15. 06. 2019 19:39

#	Program:	/corina/corina34_cracker 3.40 0067  02.08.2006

@<TRIPOS>MOLECULE
ASD01870499
  40   43    0    0    0
SMALL
NO_CHARGES


@<TRIPOS>ATOM
   1 C1            -0.0305     1.3981    -0.2319 C.ar    
   2 C2            -0.0275     0.0161    -0.1041 C.ar    
   3 C3             1.1531    -0.6623     0.1417 C.ar    
   4 C4             2.3479     0.0288     0.2632 C.ar    
   5 C5             2.3597     1.4090     0.1374 C.ar    
   6 C6             1.1569     2.1011    -0.1126 C.ar    
   7 C7             3.4139     2.4421     0.2050 C.2     
   8 N8             2.8481     3.6461     0.0057 N.am    
   9 C9             1.5217     3.5316    -0.1874 C.2     
  10 O10            0.7531     4.4496    -0.3912 O.2     
  11 O11            4.5941     2.2383     0.4068 O.2     
  12 C12            3.5489     4.8619     0.0020 C.ar    
  13 C13            4.0793     5.3538    -1.1830 C.ar    
  14 C14            4.7692     6.5494    -1.1871 C.ar    
  15 C15            4.9327     7.2614    -0.0055 C.ar    
  16 C16            4.4020     6.7702     1.1802 C.ar    
  17 C17            3.7071     5.5761     1.1831 C.ar    
  18 Cl18           3.0379     4.9647     2.6636 Cl      
  19 N19            5.6325     8.4733    -0.0098 N.am    
  20 C20            6.4047     8.8093     1.0424 C.2     
  21 C21            7.2216    10.0349     0.9953 C.2     
  22 O22            6.4274     8.1010     2.0309 O.2     
  23 N23            8.0438    10.4876     1.9889 N.pl3   
  24 C24            8.6073    11.6422     1.5442 C.2     
  25 C25            8.1215    11.8684     0.2990 C.2     
  26 N26            7.2889    10.8781    -0.0130 N.2     
  27 C27            8.2736     9.8498     3.2876 C.3     
  28 Cl28          -1.5146    -0.8670    -0.2531 Cl      
  29 H29           -0.9540     1.9227    -0.4278 H       
  30 H30            1.1432    -1.7377     0.2400 H       
  31 H31            3.2663    -0.5060     0.4554 H       
  32 H32            3.9524     4.8006    -2.1018 H       
  33 H33            5.1822     6.9313    -2.1090 H       
  34 H34            4.5293     7.3233     2.0990 H       
  35 H35            5.5618     9.0714    -0.7701 H       
  36 H36            9.3091    12.2626     2.0819 H       
  37 H37            8.3713    12.7070    -0.3341 H       
  38 H38            9.1105     9.1559     3.2086 H       
  39 H39            8.5033    10.6128     4.0315 H       
  40 H40            7.3782     9.3064     3.5891 H       
@<TRIPOS>BOND
   1    1    2 ar
   2    1    6 ar
   3    1   29 1
   4    2    3 ar
   5    2   28 1
   6    3    4 ar
   7    3   30 1
   8    4    5 ar
   9    4   31 1
  10    5    7 1
  11    5    6 ar
  12    6    9 1
  13    7    8 am
  14    7   11 2
  15    8    9 am
  16    8   12 1
  17    9   10 2
  18   12   13 ar
  19   12   17 ar
  20   13   14 ar
  21   13   32 1
  22   14   15 ar
  23   14   33 1
  24   15   16 ar
  25   15   19 1
  26   16   17 ar
  27   16   34 1
  28   17   18 1
  29   19   20 am
  30   19   35 1
  31   20   21 1
  32   20   22 2
  33   21   23 1
  34   21   26 2
  35   23   24 1
  36   23   27 1
  37   24   25 2
  38   24   36 1
  39   25   26 1
  40   25   37 1
  41   27   38 1
  42   27   39 1
  43   27   40 1

#	End of record

