#	Name: ASD00111055
#	Creating user name:	WinNT
#	Creation time:	15. 06. 2019 18:30

#	Modifying user name:	WinNT
#	Modification time:	15. 06. 2019 18:30

#	Program:	/corina/corina34_cracker 3.40 0067  02.08.2006

@<TRIPOS>MOLECULE
ASD00111055
  29   29    0    0    0
SMALL
NO_CHARGES


@<TRIPOS>ATOM
   1 N1            -0.0178     1.4608     0.0101 N.am    
   2 C2             0.0021    -0.0041     0.0020 C.3     
   3 C3            -1.4333    -0.5336     0.0129 C.3     
   4 C4            -1.4129    -2.0405     0.0046 C.ar    
   5 C5            -1.3921    -2.7371     1.1976 C.ar    
   6 C6            -1.3733    -4.1240     1.1893 C.ar    
   7 C7            -1.3754    -4.8084    -0.0178 C.ar    
   8 C8            -1.3962    -4.1073    -1.2077 C.ar    
   9 C9            -1.4206    -2.7247    -1.1966 C.ar    
  10 O10           -1.3524    -4.8115     2.3614 O.3     
  11 C11           -1.3338    -6.2379     2.2767 C.3     
  12 C12            1.1401     2.1505     0.0027 C.2     
  13 O13            2.1985     1.5584    -0.0106 O.2     
  14 C14            1.1197     3.6573     0.0110 C.3     
  15 F15            2.4322     4.1416     0.0011 F       
  16 F16            0.4430     4.1208    -1.1224 F       
  17 F17            0.4648     4.1085     1.1620 F       
  18 H18           -0.8643     1.9343     0.0167 H       
  19 H19            0.5123    -0.3556    -0.8948 H       
  20 H20            0.5293    -0.3651     0.8851 H       
  21 H21           -1.9435    -0.1821     0.9097 H       
  22 H22           -1.9605    -0.1726    -0.8702 H       
  23 H23           -1.3901    -2.2022     2.1358 H       
  24 H24           -1.3604    -5.8882    -0.0269 H       
  25 H25           -1.3975    -4.6395    -2.1475 H       
  26 H26           -1.4417    -2.1784    -2.1281 H       
  27 H27           -2.2244    -6.5823     1.7510 H       
  28 H28           -0.4447    -6.5580     1.7335 H       
  29 H29           -1.3181    -6.6613     3.2810 H       
@<TRIPOS>BOND
   1    1    2 1
   2    1   12 am
   3    1   18 1
   4    2    3 1
   5    2   19 1
   6    2   20 1
   7    3    4 1
   8    3   21 1
   9    3   22 1
  10    4    5 ar
  11    4    9 ar
  12    5    6 ar
  13    5   23 1
  14    6    7 ar
  15    6   10 1
  16    7    8 ar
  17    7   24 1
  18    8    9 ar
  19    8   25 1
  20    9   26 1
  21   10   11 1
  22   11   27 1
  23   11   28 1
  24   11   29 1
  25   12   13 2
  26   12   14 1
  27   14   15 1
  28   14   16 1
  29   14   17 1

#	End of record

