#	Name: ASD02039257
#	Creating user name:	WinNT
#	Creation time:	15. 06. 2019 20:17

#	Modifying user name:	WinNT
#	Modification time:	15. 06. 2019 20:17

#	Program:	/corina/corina34_cracker 3.40 0067  02.08.2006

@<TRIPOS>MOLECULE
ASD02039257
  43   46    0    0    0
SMALL
NO_CHARGES


@<TRIPOS>ATOM
   1 N1            -0.0161     1.3037    -0.0276 N.2     
   2 C2             0.0019    -0.0039    -0.0002 C.2     
   3 C3             1.3718    -0.3810     0.0195 C.2     
   4 C4             2.0347     0.7973     0.0007 C.2     
   5 O5             1.1031     1.7615    -0.0274 O.3     
   6 N6            -1.0993    -0.8548     0.0084 N.pl3   
   7 C7            -0.9161    -2.2369    -0.1059 C.ar    
   8 C8             0.1061    -2.7398    -0.9008 C.ar    
   9 C9             0.2853    -4.1045    -1.0118 C.ar    
  10 C10           -0.5531    -4.9717    -0.3313 C.ar    
  11 C11           -1.5726    -4.4727     0.4615 C.ar    
  12 C12           -1.7523    -3.1082     0.5796 C.ar    
  13 O13            4.0141     1.0219    -1.3335 O.3     
  14 C14            5.3526     1.1902    -1.5030 C.ar    
  15 C15            6.1807     1.3214    -0.3910 C.ar    
  16 C16            7.5391     1.4921    -0.5436 C.ar    
  17 C17            8.0952     1.5347    -1.8175 C.ar    
  18 C18            7.2618     1.4025    -2.9443 C.ar    
  19 C19            5.8848     1.2244    -2.7764 C.ar    
  20 C20            3.5293     0.9896     0.0103 C.3     
  21 F21           -0.3762    -6.3065    -0.4417 F       
  22 N22            9.4537     1.7060    -1.9914 N.am    
  23 C23            9.9935     1.7485    -3.2219 C.2     
  24 C24            9.2015     1.6213    -4.3830 C.2     
  25 C25            7.8604     1.4502    -4.2797 C.2     
  26 O26           11.1973     1.9012    -3.3376 O.2     
  27 C27           -2.4833    -5.4189     1.2007 C.3     
  28 H28            1.7871    -1.3776     0.0441 H       
  29 H29           -1.9938    -0.4895     0.0936 H       
  30 H30            0.7599    -2.0639    -1.4319 H       
  31 H31            1.0797    -4.4958    -1.6300 H       
  32 H32           -2.5477    -2.7194     1.1982 H       
  33 H33            5.7538     1.2893     0.6005 H       
  34 H34            8.1719     1.5932     0.3258 H       
  35 H35            5.2410     1.1221    -3.6375 H       
  36 H36            3.7716     1.9293     0.5067 H       
  37 H37            3.9984     0.1643     0.5460 H       
  38 H38           10.0272     1.7974    -1.2145 H       
  39 H39            9.6654     1.6600    -5.3576 H       
  40 H40            7.2471     1.3513    -5.1631 H       
  41 H41           -2.0667    -5.6290     2.1858 H       
  42 H42           -3.4673    -4.9634     1.3121 H       
  43 H43           -2.5747    -6.3485     0.6390 H       
@<TRIPOS>BOND
   1    1    2 2
   2    1    5 1
   3    2    3 1
   4    2    6 1
   5    3    4 2
   6    3   28 1
   7    4    5 1
   8    4   20 1
   9    6    7 1
  10    6   29 1
  11    7    8 ar
  12    7   12 ar
  13    8    9 ar
  14    8   30 1
  15    9   10 ar
  16    9   31 1
  17   10   11 ar
  18   10   21 1
  19   11   12 ar
  20   11   27 1
  21   12   32 1
  22   13   14 1
  23   13   20 1
  24   14   15 ar
  25   14   19 ar
  26   15   16 ar
  27   15   33 1
  28   16   17 ar
  29   16   34 1
  30   17   18 ar
  31   17   22 1
  32   18   19 ar
  33   18   25 1
  34   19   35 1
  35   20   36 1
  36   20   37 1
  37   22   23 am
  38   22   38 1
  39   23   24 1
  40   23   26 2
  41   24   25 2
  42   24   39 1
  43   25   40 1
  44   27   41 1
  45   27   42 1
  46   27   43 1

#	End of record

