#	Name: ASD04230030
#	Creating user name:	WinNT
#	Creation time:	15. 06. 2019 20:48

#	Modifying user name:	WinNT
#	Modification time:	15. 06. 2019 20:48

#	Program:	/corina/corina34_cracker 3.40 0067  02.08.2006

@<TRIPOS>MOLECULE
ASD04230030
  30   31    0    0    0
SMALL
NO_CHARGES


@<TRIPOS>ATOM
   1 N1            -0.0169     1.3927     0.0097 N.pl3   
   2 C2             0.0021    -0.0041     0.0020 C.ar    
   3 C3             1.2125    -0.6815    -0.0132 C.ar    
   4 C4             1.2262    -2.0737    -0.0203 C.ar    
   5 C5             0.0235    -2.7791    -0.0121 C.ar    
   6 C6            -1.1769    -2.0976     0.0025 C.ar    
   7 C7            -1.1916    -0.7155     0.0154 C.ar    
   8 C8             2.7637    -3.8343     0.8789 C.ar    
   9 C9             2.5168    -2.8046    -0.0370 C.ar    
  10 C10            3.5051    -2.4779    -0.9661 C.ar    
  11 C11            4.6935    -3.1904    -0.9414 C.ar    
  12 C12            4.8639    -4.1936    -0.0071 C.ar    
  13 N13            3.9138    -4.4847     0.8616 N.ar    
  14 O14            1.8179    -4.1631     1.7934 O.3     
  15 C15            2.1320    -5.2226     2.6994 C.3     
  16 C16            0.9534    -5.4483     3.6486 C.3     
  17 H17            0.8165     1.8891     0.0044 H       
  18 H18           -0.8634     1.8662     0.0163 H       
  19 H19            2.1414    -0.1307    -0.0198 H       
  20 H20            0.0310    -3.8590    -0.0176 H       
  21 H21           -2.1072    -2.6460     0.0081 H       
  22 H22           -2.1334    -0.1871     0.0317 H       
  23 H23            3.3477    -1.6893    -1.6870 H       
  24 H24            5.4794    -2.9636    -1.6467 H       
  25 H25            5.7898    -4.7492     0.0127 H       
  26 H26            2.3257    -6.1360     2.1370 H       
  27 H27            3.0176    -4.9566     3.2765 H       
  28 H28            0.7598    -4.5349     4.2109 H       
  29 H29            0.0679    -5.7143     3.0714 H       
  30 H30            1.1931    -6.2565     4.3396 H       
@<TRIPOS>BOND
   1    1    2 1
   2    1   17 1
   3    1   18 1
   4    2    3 ar
   5    2    7 ar
   6    3    4 ar
   7    3   19 1
   8    4    5 ar
   9    4    9 1
  10    5    6 ar
  11    5   20 1
  12    6    7 ar
  13    6   21 1
  14    7   22 1
  15    8    9 ar
  16    8   13 ar
  17    8   14 1
  18    9   10 ar
  19   10   11 ar
  20   10   23 1
  21   11   12 ar
  22   11   24 1
  23   12   13 ar
  24   12   25 1
  25   14   15 1
  26   15   16 1
  27   15   26 1
  28   15   27 1
  29   16   28 1
  30   16   29 1
  31   16   30 1

#	End of record

