#	Name: ASD06660190
#	Creating user name:	WinNT
#	Creation time:	15. 06. 2019 21:08

#	Modifying user name:	WinNT
#	Modification time:	15. 06. 2019 21:08

#	Program:	/corina/corina34_cracker 3.40 0067  02.08.2006

@<TRIPOS>MOLECULE
ASD06660190
  71   75    0    0    0
SMALL
NO_CHARGES


@<TRIPOS>ATOM
   1 C1            -0.0184     1.5028     0.0103 C.2     
   2 C2             0.0021    -0.0041     0.0020 C.3     
   3 C3            -0.7241    -0.5171    -1.2431 C.3     
   4 O4             1.0197     2.1211     0.0037 O.2     
   5 O5            -1.1898     2.1580     0.0194 O.3     
   6 C6             2.4068    -0.2999    -0.8690 C.2     
   7 N7             1.3897    -0.4735    -0.0138 N.am    
   8 C8             2.1735    -1.3017     0.8959 C.3     
   9 C9             3.3452    -1.1250    -0.0516 C.3     
  10 C10            3.8681    -2.4040    -0.7151 C.3     
  11 C11            5.4006    -2.3969    -0.5245 C.3     
  12 C12            5.6263    -1.4906     0.7118 C.3     
  13 C13            4.5601    -0.3808     0.5246 C.3     
  14 O14            2.5208     0.2989    -1.9175 O.2     
  15 C15           -0.8113    -2.0207    -1.1900 C.ar    
  16 C16           -1.8983    -2.6278    -0.5884 C.ar    
  17 C17           -1.9814    -4.0054    -0.5380 C.ar    
  18 C18           -0.9713    -4.7813    -1.0925 C.ar    
  19 C19            0.1192    -4.1682    -1.6960 C.ar    
  20 C20            0.1932    -2.7901    -1.7480 C.ar    
  21 N21           -1.0519    -6.1748    -1.0428 N.3     
  22 C22            0.1154    -6.7927    -1.6847 C.3     
  23 C23           -0.0755    -8.3100    -1.7414 C.3     
  24 C24           -0.2456    -8.8516    -0.3193 C.3     
  25 C25           -1.4383    -8.1570     0.3437 C.3     
  26 C26           -1.2079    -6.6440     0.3399 C.3     
  27 C27           -0.4975   -10.3598    -0.3732 C.3     
  28 N28           -0.5413   -10.8966     0.9892 N.pl3   
  29 C29           -0.7596   -12.2539     1.1947 C.ar    
  30 C30           -0.9358   -13.0971     0.1020 C.ar    
  31 C31           -1.1521   -14.4454     0.3210 C.ar    
  32 C32           -1.1853   -14.9073     1.6304 C.ar    
  33 C33           -1.0027   -14.0145     2.6670 C.ar    
  34 N34           -0.7927   -12.7337     2.4282 N.ar    
  35 C35           -1.3481   -15.3920    -0.8351 C.3     
  36 H36           -0.4983    -0.3791     0.8948 H       
  37 H37           -1.7288    -0.0959    -1.2772 H       
  38 H38           -0.1736    -0.2164    -2.1345 H       
  39 H39           -1.1523     3.1243     0.0245 H       
  40 H40            2.3315    -0.8451     1.8730 H       
  41 H41            1.8191    -2.3304     0.9622 H       
  42 H42            3.4349    -3.2801    -0.2324 H       
  43 H43            3.6230    -2.4018    -1.7772 H       
  44 H44            5.7654    -3.4054    -0.3298 H       
  45 H45            5.8921    -1.9752    -1.4013 H       
  46 H46            5.4493    -2.0444     1.6338 H       
  47 H47            6.6305    -1.0668     0.7015 H       
  48 H48            4.9138     0.3744    -0.1773 H       
  49 H49            4.3101     0.0743     1.4830 H       
  50 H50           -2.6831    -2.0240    -0.1572 H       
  51 H51           -2.8305    -4.4790    -0.0677 H       
  52 H52            0.9062    -4.7685    -2.1281 H       
  53 H53            1.0385    -2.3127    -2.2213 H       
  54 H54            0.2226    -6.4021    -2.6967 H       
  55 H55            1.0115    -6.5606    -1.1092 H       
  56 H56           -0.9638    -8.5434    -2.3284 H       
  57 H57            0.7981    -8.7697    -2.2037 H       
  58 H58            0.6581    -8.6527     0.2568 H       
  59 H59           -2.3480    -8.3879    -0.2105 H       
  60 H60           -1.5385    -8.5072     1.3710 H       
  61 H61           -0.3056    -6.4127     0.9059 H       
  62 H62           -2.0619    -6.1455     0.7984 H       
  63 H63           -1.4485   -10.5517    -0.8701 H       
  64 H64            0.3065   -10.8428    -0.9284 H       
  65 H65           -0.4180   -10.3049     1.7478 H       
  66 H66           -0.9043   -12.7040    -0.9034 H       
  67 H67           -1.3525   -15.9544     1.8353 H       
  68 H68           -1.0277   -14.3695     3.6867 H       
  69 H69           -0.3820   -15.7884    -1.1479 H       
  70 H70           -1.9951   -16.2132    -0.5267 H       
  71 H71           -1.8087   -14.8592    -1.6669 H       
@<TRIPOS>BOND
   1    1    2 1
   2    1    4 2
   3    1    5 1
   4    2    3 1
   5    2    7 1
   6    2   36 1
   7    3   15 1
   8    3   37 1
   9    3   38 1
  10    5   39 1
  11    6    7 am
  12    6    9 1
  13    6   14 2
  14    7    8 1
  15    8    9 1
  16    8   40 1
  17    8   41 1
  18    9   10 1
  19    9   13 1
  20   10   11 1
  21   10   42 1
  22   10   43 1
  23   11   12 1
  24   11   44 1
  25   11   45 1
  26   12   13 1
  27   12   46 1
  28   12   47 1
  29   13   48 1
  30   13   49 1
  31   15   16 ar
  32   15   20 ar
  33   16   17 ar
  34   16   50 1
  35   17   18 ar
  36   17   51 1
  37   18   19 ar
  38   18   21 1
  39   19   20 ar
  40   19   52 1
  41   20   53 1
  42   21   22 1
  43   21   26 1
  44   22   23 1
  45   22   54 1
  46   22   55 1
  47   23   24 1
  48   23   56 1
  49   23   57 1
  50   24   25 1
  51   24   27 1
  52   24   58 1
  53   25   26 1
  54   25   59 1
  55   25   60 1
  56   26   61 1
  57   26   62 1
  58   27   28 1
  59   27   63 1
  60   27   64 1
  61   28   29 1
  62   28   65 1
  63   29   30 ar
  64   29   34 ar
  65   30   31 ar
  66   30   66 1
  67   31   32 ar
  68   31   35 1
  69   32   33 ar
  70   32   67 1
  71   33   34 ar
  72   33   68 1
  73   35   69 1
  74   35   70 1
  75   35   71 1

#	End of record

