#	Name: ASD01230580
#	Creating user name:	WinNT
#	Creation time:	15. 06. 2019 19:14

#	Modifying user name:	WinNT
#	Modification time:	15. 06. 2019 19:14

#	Program:	/corina/corina34_cracker 3.40 0067  02.08.2006

@<TRIPOS>MOLECULE
ASD01230580
  44   47    0    0    0
SMALL
NO_CHARGES


@<TRIPOS>ATOM
   1 C1            -0.0167     1.3781     0.0096 C.ar    
   2 C2             0.0021    -0.0041     0.0020 C.ar    
   3 C3             1.2084    -0.6789    -0.0132 C.ar    
   4 C4             2.3960     0.0285    -0.0212 C.ar    
   5 C5             2.3773     1.4107    -0.0145 C.ar    
   6 C6             1.1709     2.0855     0.0021 C.ar    
   7 C7             3.7112    -0.7071    -0.0368 C.3     
   8 O8             4.1142    -0.9338    -1.3889 O.3     
   9 C9             5.2883    -1.5907    -1.5809 C.ar    
  10 C10            5.7378    -1.8432    -2.8700 C.ar    
  11 C11            6.0382    -2.0026    -0.4874 C.ar    
  12 C12            7.2299    -2.6693    -0.6782 C.ar    
  13 C13            7.6820    -2.9300    -1.9722 C.ar    
  14 C14            6.9285    -2.5094    -3.0687 C.ar    
  15 C15            8.9612    -3.6456    -2.1814 C.2     
  16 C16           10.1036    -2.9644    -2.8268 C.2     
  17 C17            9.1043    -4.9535    -1.7719 C.2     
  18 C18           10.3279    -5.6027    -1.9868 C.2     
  19 C19           11.3460    -4.9681    -2.5926 C.2     
  20 N20           11.2545    -3.6706    -3.0321 N.pl3   
  21 C21           12.4295    -3.1365    -3.7257 C.3     
  22 C22           12.6218    -1.6537    -3.3954 C.3     
  23 S23           11.0893    -0.7945    -3.8729 S.o2    
  24 N24            9.9157    -1.7064    -3.1444 N.am    
  25 O25           11.0044     0.4748    -3.2398 O.2     
  26 O26           10.8398    -0.9439    -5.2638 O.2     
  27 H27           -0.9592     1.9054     0.0170 H       
  28 H28           -0.9258    -0.5567     0.0083 H       
  29 H29            1.2231    -1.7588    -0.0184 H       
  30 H30            3.3051     1.9634    -0.0205 H       
  31 H31            1.1563     3.1654     0.0069 H       
  32 H32            4.4676    -0.1100     0.4726 H       
  33 H33            3.5986    -1.6635     0.4740 H       
  34 H34            5.1538    -1.5177    -3.7182 H       
  35 H35            5.6877    -1.8002     0.5140 H       
  36 H36            7.8128    -2.9891     0.1729 H       
  37 H37            7.2754    -2.7094    -4.0718 H       
  38 H38            8.2863    -5.4703    -1.2922 H       
  39 H39           10.4540    -6.6249    -1.6616 H       
  40 H40           12.2756    -5.4989    -2.7356 H       
  41 H41           13.3141    -3.6919    -3.4140 H       
  42 H42           12.2946    -3.2506    -4.8013 H       
  43 H43           12.7988    -1.5311    -2.3268 H       
  44 H44           13.4635    -1.2534    -3.9605 H       
@<TRIPOS>BOND
   1    1    2 ar
   2    1    6 ar
   3    1   27 1
   4    2    3 ar
   5    2   28 1
   6    3    4 ar
   7    3   29 1
   8    4    5 ar
   9    4    7 1
  10    5    6 ar
  11    5   30 1
  12    6   31 1
  13    7    8 1
  14    7   32 1
  15    7   33 1
  16    8    9 1
  17    9   10 ar
  18    9   11 ar
  19   10   14 ar
  20   10   34 1
  21   11   12 ar
  22   11   35 1
  23   12   13 ar
  24   12   36 1
  25   13   14 ar
  26   13   15 1
  27   14   37 1
  28   15   16 1
  29   15   17 2
  30   16   20 1
  31   16   24 2
  32   17   18 1
  33   17   38 1
  34   18   19 2
  35   18   39 1
  36   19   20 1
  37   19   40 1
  38   20   21 1
  39   21   22 1
  40   21   41 1
  41   21   42 1
  42   22   23 1
  43   22   43 1
  44   22   44 1
  45   23   24 am
  46   23   25 2
  47   23   26 2

#	End of record

