#	Name: ASD02030415
#	Creating user name:	WinNT
#	Creation time:	15. 06. 2019 20:15

#	Modifying user name:	WinNT
#	Modification time:	15. 06. 2019 20:15

#	Program:	/corina/corina34_cracker 3.40 0067  02.08.2006

@<TRIPOS>MOLECULE
ASD02030415
  40   41    0    0    0
SMALL
NO_CHARGES


@<TRIPOS>ATOM
   1 S1            -0.0220     1.7682     0.0118 S.3     
   2 C2             0.0021    -0.0041     0.0020 C.2     
   3 N3             1.3150    -0.3971    -0.0126 N.am    
   4 C4             2.2811     0.5054    -0.0170 C.2     
   5 C5             1.7940     1.9357    -0.0047 C.3     
   6 C6             2.2555     2.6726    -1.2636 C.3     
   7 C7             1.7685     4.0980    -1.2182 C.2     
   8 N8             2.0575     4.9414    -2.2290 N.am    
   9 O9             1.1165     4.4862    -0.2721 O.2     
  10 C10            1.6095     6.2525    -2.1872 C.2     
  11 C11            0.6144     8.4928    -1.6978 C.2     
  12 S12            0.6937     6.9240    -0.9162 S.3     
  13 C13            1.8473     7.1896    -3.1605 C.2     
  14 C14            1.2603     8.4762    -2.8547 C.2     
  15 C15           -0.0894     9.6975    -1.1284 C.3     
  16 C16           -1.5437     9.7105    -1.6035 C.3     
  17 C17            2.6137     6.9171    -4.3781 C.2     
  18 O18            2.8035     7.8942    -5.2884 O.3     
  19 O19            3.0793     5.8096    -4.5687 O.2     
  20 C20            3.5730     7.5527    -6.4714 C.3     
  21 O21            3.4572     0.2106    -0.0298 O.2     
  22 N22           -1.0376    -0.7891     0.0081 N.2     
  23 C23            3.6815     8.7783    -7.3807 C.3     
  24 H24            1.5363    -1.3415    -0.0195 H       
  25 H25            2.1399     2.4511     0.8913 H       
  26 H26            3.3443     2.6621    -1.3122 H       
  27 H27            1.8476     2.1772    -2.1447 H       
  28 H28            2.5789     4.6309    -2.9856 H       
  29 H29            1.3391     9.3354    -3.5043 H       
  30 H30           -0.0633     9.6527    -0.0396 H       
  31 H31            0.4114    10.6046    -1.4668 H       
  32 H32           -1.5699     9.7553    -2.6923 H       
  33 H33           -2.0446     8.8034    -1.2651 H       
  34 H34           -2.0528    10.5818    -1.1916 H       
  35 H35            4.5713     7.2307    -6.1750 H       
  36 H36            3.0752     6.7450    -7.0081 H       
  37 H37           -0.9185    -1.7518     0.0018 H       
  38 H38            2.6832     9.1003    -7.6771 H       
  39 H39            4.1793     9.5860    -6.8440 H       
  40 H40            4.2592     8.5220    -8.2687 H       
@<TRIPOS>BOND
   1    1    2 1
   2    1    5 1
   3    2    3 1
   4    2   22 2
   5    3    4 am
   6    3   24 1
   7    4    5 1
   8    4   21 2
   9    5    6 1
  10    5   25 1
  11    6    7 1
  12    6   26 1
  13    6   27 1
  14    7    8 am
  15    7    9 2
  16    8   10 1
  17    8   28 1
  18   10   13 2
  19   10   12 1
  20   11   12 1
  21   11   14 2
  22   11   15 1
  23   13   14 1
  24   13   17 1
  25   14   29 1
  26   15   16 1
  27   15   30 1
  28   15   31 1
  29   16   32 1
  30   16   33 1
  31   16   34 1
  32   17   18 1
  33   17   19 2
  34   18   20 1
  35   20   23 1
  36   20   35 1
  37   20   36 1
  38   22   37 1
  39   23   38 1
  40   23   39 1
  41   23   40 1

#	End of record

