#	Name: ASD08150228
#	Creating user name:	WinNT
#	Creation time:	15. 06. 2019 21:15

#	Modifying user name:	WinNT
#	Modification time:	15. 06. 2019 21:15

#	Program:	/corina/corina34_cracker 3.40 0067  02.08.2006

@<TRIPOS>MOLECULE
ASD08150228
  57   61    0    0    0
SMALL
NO_CHARGES


@<TRIPOS>ATOM
   1 N1            -1.2602    -0.0764    -0.2111 N.2     
   2 C2            -0.9536    -1.3094     0.0562 C.2     
   3 N3            -0.1279    -1.6704     1.0756 N.am    
   4 C4             0.4256    -0.7320     1.8786 C.2     
   5 C5             0.0979     0.6742     1.6020 C.ar    
   6 C6             0.6151     1.7159     2.3697 C.ar    
   7 C7             0.2748     3.0160     2.0669 C.ar    
   8 C8            -0.5769     3.2943     1.0057 C.ar    
   9 C9            -1.0986     2.2799     0.2351 C.ar    
  10 C10           -0.7686     0.9536     0.5220 C.ar    
  11 O11            1.1656    -1.0404     2.7945 O.2     
  12 C12            0.1513    -3.0250     1.2962 C.ar    
  13 C13           -0.5456    -3.7297     2.2691 C.ar    
  14 C14            0.7030    -5.7011     1.7321 C.ar    
  15 C15            1.1214    -3.6677     0.5388 C.ar    
  16 C16           -0.2679    -5.0652     2.4843 C.ar    
  17 C17            1.3946    -5.0037     0.7588 C.ar    
  18 C18           -1.6034    -3.0375     3.0895 C.3     
  19 C19            1.5395     1.4223     3.5232 C.3     
  20 C20           -1.5425    -2.3960    -0.8062 C.3     
  21 N21           -2.8779    -0.4176    -3.4973 N.2     
  22 C22           -1.9700    -0.6757    -2.6013 C.2     
  23 N23           -2.3112    -1.7910    -1.8968 N.pl3   
  24 C24           -3.5066    -2.2439    -2.3957 C.ar    
  25 N25           -4.3131    -3.2596    -2.1214 N.ar    
  26 C26           -5.4275    -3.4296    -2.8022 C.ar    
  27 N27           -5.7939    -2.6144    -3.7744 N.ar    
  28 C28           -5.0514    -1.5749    -4.1166 C.ar    
  29 C29           -3.8598    -1.3491    -3.4266 C.ar    
  30 N30           -0.4606    -3.2169    -1.3664 N.3     
  31 C31           -0.8236    -4.6403    -1.3620 C.3     
  32 C32           -0.1059    -2.7682    -2.7194 C.3     
  33 N33           -2.4275    -3.2408     0.0068 N.3     
  34 H34            0.6735     3.8257     2.6600 H       
  35 H35           -0.8335     4.3194     0.7826 H       
  36 H36           -1.7602     2.5086    -0.5874 H       
  37 H37            0.9186    -6.7455     1.9024 H       
  38 H38            1.6617    -3.1236    -0.2218 H       
  39 H39           -0.8093    -5.6136     3.2409 H       
  40 H40            2.1525    -5.5029     0.1733 H       
  41 H41           -2.5789    -3.1899     2.6277 H       
  42 H42           -1.6100    -3.4517     4.0977 H       
  43 H43           -1.3863    -1.9704     3.1364 H       
  44 H44            2.5560     1.2953     3.1509 H       
  45 H45            1.5125     2.2512     4.2305 H       
  46 H46            1.2185     0.5080     4.0224 H       
  47 H47           -1.0762    -0.0913    -2.4399 H       
  48 H48           -6.0648    -4.2663    -2.5567 H       
  49 H49           -5.3607    -0.9150    -4.9136 H       
  50 H50           -1.7158    -4.7896    -1.9701 H       
  51 H51           -0.0015    -5.2262    -1.7730 H       
  52 H52           -1.0229    -4.9613    -0.3396 H       
  53 H53            0.1549    -1.7101    -2.6947 H       
  54 H54            0.7458    -3.3440    -3.0815 H       
  55 H55           -0.9553    -2.9176    -3.3861 H       
  56 H56           -1.9004    -3.7657     0.6885 H       
  57 H57           -3.1456    -2.6890     0.4517 H       
@<TRIPOS>BOND
   1    1    2 2
   2    1   10 1
   3    2    3 1
   4    2   20 1
   5    3    4 am
   6    3   12 1
   7    4    5 1
   8    4   11 2
   9    5    6 ar
  10    5   10 ar
  11    6    7 ar
  12    6   19 1
  13    7    8 ar
  14    7   34 1
  15    8    9 ar
  16    8   35 1
  17    9   10 ar
  18    9   36 1
  19   12   13 ar
  20   12   15 ar
  21   13   16 ar
  22   13   18 1
  23   14   16 ar
  24   14   17 ar
  25   14   37 1
  26   15   17 ar
  27   15   38 1
  28   16   39 1
  29   17   40 1
  30   18   41 1
  31   18   42 1
  32   18   43 1
  33   19   44 1
  34   19   45 1
  35   19   46 1
  36   20   23 1
  37   20   30 1
  38   20   33 1
  39   21   22 2
  40   21   29 1
  41   22   23 1
  42   22   47 1
  43   23   24 1
  44   24   25 ar
  45   24   29 ar
  46   25   26 ar
  47   26   27 ar
  48   26   48 1
  49   27   28 ar
  50   28   29 ar
  51   28   49 1
  52   30   31 1
  53   30   32 1
  54   31   50 1
  55   31   51 1
  56   31   52 1
  57   32   53 1
  58   32   54 1
  59   32   55 1
  60   33   56 1
  61   33   57 1

#	End of record

