#	Name: ASD06600060
#	Creating user name:	WinNT
#	Creation time:	15. 06. 2019 21:07

#	Modifying user name:	WinNT
#	Modification time:	15. 06. 2019 21:07

#	Program:	/corina/corina34_cracker 3.40 0067  02.08.2006

@<TRIPOS>MOLECULE
ASD06600060
 297  297    0    0    0
SMALL
NO_CHARGES


@<TRIPOS>ATOM
   1 C1            -0.3278     4.0453    -1.6618 C.2     
   2 O2            -0.1634     2.9312    -1.2117 O.2     
   3 N3             2.0638     4.0852    -2.0899 N.3     
   4 C4             0.7826     4.7216    -2.4237 C.3     
   5 C5             0.5240     4.5902    -3.9260 C.3     
   6 C6             1.5822     5.3820    -4.6968 C.3     
   7 C7             1.3236     5.2506    -6.1990 C.3     
   8 N8             2.3369     6.0087    -6.9371 N.pl3   
   9 C9             2.3078     6.0382    -8.3109 C.2     
  10 N10            1.4287     5.3293    -8.9587 N.2     
  11 N11            3.2113     6.8201    -9.0044 N.am    
  12 C12           -3.9249     4.5182    -1.3793 C.2     
  13 O13           -3.9486     5.5887    -1.9487 O.2     
  14 N14           -1.5056     4.6763    -1.4854 N.am    
  15 C15           -2.6232     3.9764    -0.8472 C.3     
  16 C16           -2.5621     4.1914     0.6664 C.3     
  17 C17           -3.7001     3.4198     1.3376 C.3     
  18 C18           -3.5004     1.9195     1.1140 C.3     
  19 C19           -3.7014     3.7161     2.8386 C.3     
  20 C20           -7.4843     3.7401    -1.0820 C.2     
  21 O21           -7.3073     3.0418    -0.1063 O.2     
  22 N22           -5.0627     3.8130    -1.2224 N.am    
  23 C23           -6.3032     4.2750    -1.8501 C.3     
  24 C24           -6.3629     3.7709    -3.2935 C.3     
  25 C25           -5.2355     4.4125    -4.1047 C.3     
  26 C26           -5.2951     3.9084    -5.5481 C.3     
  27 N27           -4.2156     4.5227    -6.3249 N.pl3   
  28 C28           -4.0685     4.2184    -7.6575 C.2     
  29 N29           -3.1080     4.7650    -8.3487 N.2     
  30 N30           -4.9345     3.3376    -8.2612 N.pl3   
  31 C31          -11.0844     3.4431    -1.6426 C.2     
  32 O32          -10.9891     3.7900    -2.8008 O.2     
  33 N33           -8.7373     4.0378    -1.4793 N.am    
  34 C34           -9.8855     3.5178    -0.7326 C.3     
  35 C35          -10.1939     4.4486     0.4419 C.3     
  36 C36           -9.0256     4.4277     1.4296 C.3     
  37 C37           -9.3294     5.3446     2.5865 C.2     
  38 O38          -10.3772     5.9546     2.6178 O.2     
  39 N39           -8.4368     5.4866     3.5862 N.am    
  40 C40          -14.6884     2.9906    -1.2311 C.2     
  41 O41          -14.6199     3.0930    -0.0246 O.2     
  42 N42          -12.2625     2.9907    -1.1693 N.am    
  43 C43          -13.4279     2.9181    -2.0539 C.3     
  44 C44          -13.3993     1.5985    -2.8278 C.3     
  45 C45          -18.2444     2.3486    -1.7844 C.2     
  46 O46          -18.0439     1.8643    -2.8781 O.2     
  47 N47          -15.8918     2.9418    -1.8360 N.am    
  48 C48          -17.1171     3.0124    -1.0362 C.3     
  49 C49          -17.4718     4.4775    -0.7746 C.3     
  50 C50          -16.3855     5.1184     0.0916 C.3     
  51 C51          -16.7348     6.5615     0.3493 C.2     
  52 O52          -17.7523     7.0312    -0.1142 O.2     
  53 N53          -15.9164     7.3302     1.0948 N.am    
  54 C54          -21.8865     2.2175    -1.5007 C.2     
  55 O55          -21.9068     3.0778    -0.6461 O.2     
  56 N56          -19.4752     2.2931    -1.2382 N.am    
  57 C57          -20.5710     1.6479    -1.9655 C.3     
  58 C58          -20.5441     0.1418    -1.6972 C.3     
  59 C59          -19.2629    -0.4574    -2.2806 C.3     
  60 C60          -19.2360    -1.9634    -2.0122 C.3     
  61 N61          -18.0092    -2.5371    -2.5708 N.pl3   
  62 C62          -17.7638    -3.8845    -2.4509 C.2     
  63 N63          -18.6227    -4.6516    -1.8403 N.2     
  64 N64          -16.6125    -4.4229    -2.9752 N.pl3   
  65 C65          -25.4151     1.3179    -1.8217 C.2     
  66 O66          -25.2920     0.4826    -2.6923 O.2     
  67 N67          -23.0406     1.7709    -2.0348 N.am    
  68 C68          -24.3194     2.3247    -1.5830 C.3     
  69 C69          -24.6247     3.6052    -2.3628 C.3     
  70 C70          -23.5402     4.6462    -2.0785 C.3     
  71 C71          -23.8454     5.9267    -2.8582 C.3     
  72 N72          -22.8070     6.9236    -2.5860 N.pl3   
  73 C73          -22.8701     8.1618    -3.1801 C.2     
  74 N74          -23.8538     8.4488    -3.9856 N.2     
  75 N75          -21.8955     9.0973    -2.9246 N.pl3   
  76 C76          -28.2219     0.3459    -2.5110 C.2     
  77 O77          -27.7758     1.0723    -3.3737 O.2     
  78 N78          -26.5318     1.3458    -1.0676 N.am    
  79 C79          -27.6295     0.3694    -1.1255 C.3     
  80 C80          -28.6969     0.8190    -0.1058 C.3     
  81 C81          -28.3994     2.3323     0.0644 C.3     
  82 C82          -26.8521     2.3569    -0.0436 C.3     
  83 C83          -31.2497    -0.9868    -4.0665 C.2     
  84 O84          -31.7370    -1.2819    -2.9958 O.2     
  85 N85          -29.2476    -0.4823    -2.7913 N.am    
  86 C86          -29.8235    -0.5052    -4.1382 C.3     
  87 C87          -29.0100    -1.4502    -5.0247 C.3     
  88 C88          -27.5952    -0.8946    -5.1989 C.3     
  89 C89          -26.7939    -1.8254    -6.0722 C.2     
  90 O90          -27.3043    -2.8340    -6.5119 O.2     
  91 N91          -25.5102    -1.5372    -6.3645 N.am    
  92 C92          -33.7640    -2.1601    -6.4466 C.2     
  93 O93          -32.9652    -2.1949    -7.3586 O.2     
  94 N94          -31.9836    -1.0896    -5.1922 N.am    
  95 C95          -33.3700    -1.5578    -5.1226 C.3     
  96 C96          -34.2913    -0.3783    -4.8046 C.3     
  97 C97          -33.9733     0.1547    -3.4061 C.3     
  98 C98          -34.8945     1.3342    -3.0882 C.3     
  99 N99          -34.5900     1.8445    -1.7491 N.pl3   
 100 C100         -35.2950     2.9108    -1.2431 C.2     
 101 N101         -35.0241     3.3648    -0.0518 N.2     
 102 N102         -36.2857     3.4983    -1.9938 N.pl3   
 103 C103         -36.8826    -3.1636    -8.0685 C.2     
 104 O104         -37.5618    -2.6650    -7.1962 O.2     
 105 N105         -35.0038    -2.6602    -6.6172 N.am    
 106 C106         -35.3868    -3.2457    -7.9044 C.3     
 107 C107         -34.9486    -4.7110    -7.9486 C.3     
 108 C108         -33.4211    -4.7880    -7.9073 C.3     
 109 C109         -32.9895    -6.2312    -7.9509 C.2     
 110 O110         -33.8217    -7.1115    -8.0092 O.2     
 111 N111         -31.6787    -6.5436    -7.9250 N.am    
 112 C112         -39.5645    -4.7484    -8.6712 C.2     
 113 O113         -38.8798    -5.5744    -8.1154 O.2     
 114 N114         -37.4654    -3.6442    -9.1846 N.am    
 115 C115         -38.9195    -3.5643    -9.3442 C.3     
 116 C116         -39.2703    -3.5705   -10.8334 C.3     
 117 C117         -38.7206    -2.3037   -11.4921 C.3     
 118 C118         -39.0714    -2.3099   -12.9813 C.3     
 119 C119         -38.5217    -1.0430   -13.6400 C.3     
 120 N120         -38.8585    -1.0490   -15.0699 N.3     
 121 O121         -40.8996    -4.8856    -8.6894 O.3     
 122 C122           4.1957     7.4601    -8.3428 C.2     
 123 O123           4.3527     7.2683    -7.1559 O.2     
 124 C124          18.6962    19.2997    -7.4774 C.3     
 125 C125          17.7767    18.3311    -6.7308 C.3     
 126 C126          16.7541    17.7446    -7.7061 C.3     
 127 C127          15.8346    16.7760    -6.9595 C.3     
 128 C128          14.8120    16.1895    -7.9347 C.3     
 129 C129          13.8925    15.2210    -7.1882 C.3     
 130 C130          12.8699    14.6344    -8.1634 C.3     
 131 C131          11.9504    13.6659    -7.4168 C.3     
 132 C132          10.9278    13.0793    -8.3921 C.3     
 133 C133          10.0083    12.1108    -7.6455 C.3     
 134 C134           8.9856    11.5242    -8.6208 C.3     
 135 C135           8.0661    10.5557    -7.8742 C.3     
 136 C136           7.0435     9.9691    -8.8494 C.3     
 137 C137           6.1240     9.0006    -8.1029 C.3     
 138 C138           5.1014     8.4140    -9.0781 C.3     
 139 H139           2.0550     3.1057    -2.3322 H       
 140 H140           2.8319     4.5617    -2.5382 H       
 141 H141           0.8194     5.7766    -2.1523 H       
 142 H142           0.5754     3.5400    -4.2130 H       
 143 H143          -0.4655     4.9829    -4.1600 H       
 144 H144           1.5308     6.4323    -4.4097 H       
 145 H145           2.5718     4.9894    -4.4628 H       
 146 H146           1.3750     4.2004    -6.4861 H       
 147 H147           0.3341     5.6432    -6.4331 H       
 148 H148           3.0284     6.4899    -6.4563 H       
 149 H149           1.3601     5.4052    -9.9233 H       
 150 H150           3.1372     6.9085    -9.9676 H       
 151 H151          -1.6133     5.5938    -1.7810 H       
 152 H152          -2.5568     2.9106    -1.0657 H       
 153 H153          -1.6058     3.8316     1.0462 H       
 154 H154          -2.6640     5.2540     0.8869 H       
 155 H155          -4.6522     3.7279     0.9056 H       
 156 H156          -2.5105     1.6284     1.4653 H       
 157 H157          -4.2594     1.3656     1.6666 H       
 158 H158          -3.5891     1.6955     0.0510 H       
 159 H159          -3.8437     4.7850     2.9978 H       
 160 H160          -4.5122     3.1664     3.3167 H       
 161 H161          -2.7493     3.4079     3.2706 H       
 162 H162          -5.0603     2.9996    -0.6939 H       
 163 H163          -6.3294     5.3646    -1.8444 H       
 164 H164          -6.2474     2.6871    -3.3049 H       
 165 H165          -7.3241     4.0386    -3.7323 H       
 166 H166          -5.3509     5.4963    -4.0933 H       
 167 H167          -4.2743     4.1448    -3.6659 H       
 168 H168          -5.1797     2.8246    -5.5595 H       
 169 H169          -6.2563     4.1761    -5.9870 H       
 170 H170          -3.6046     5.1442    -5.8990 H       
 171 H171          -3.0043     4.5502    -9.2889 H       
 172 H172          -5.6493     2.9309    -7.7468 H       
 173 H173          -4.8307     3.1229    -9.2014 H       
 174 H174          -8.8789     4.5963    -2.2596 H       
 175 H175          -9.6529     2.5219    -0.3555 H       
 176 H176         -10.3393     5.4638     0.0725 H       
 177 H177         -11.1005     4.1115     0.9443 H       
 178 H178          -8.8802     3.4126     1.7990 H       
 179 H179          -8.1190     4.7649     0.9272 H       
 180 H180          -7.5988     4.9987     3.5611 H       
 181 H181          -8.6323     6.0767     4.3308 H       
 182 H182         -12.3386     2.7133    -0.2429 H       
 183 H183         -13.4038     3.7516    -2.7559 H       
 184 H184         -13.4235     0.7650    -2.1258 H       
 185 H185         -14.2665     1.5444    -3.4860 H       
 186 H186         -12.4877     1.5460    -3.4229 H       
 187 H187         -15.9466     2.8599    -2.8010 H       
 188 H188         -16.9609     2.5012    -0.0863 H       
 189 H189         -17.5408     5.0096    -1.7234 H       
 190 H190         -18.4292     4.5327    -0.2565 H       
 191 H191         -16.3164     4.5863     1.0404 H       
 192 H192         -15.4281     5.0632    -0.4264 H       
 193 H193         -15.1025     6.9545     1.4656 H       
 194 H194         -16.1412     8.2591     1.2607 H       
 195 H195         -19.6355     2.6805    -0.3634 H       
 196 H196         -20.4540     1.8287    -3.0340 H       
 197 H197         -20.5717    -0.0362    -0.6222 H       
 198 H198         -21.4100    -0.3262    -2.1653 H       
 199 H199         -19.2352    -0.2793    -3.3556 H       
 200 H200         -18.3969     0.0107    -1.8124 H       
 201 H201         -19.2636    -2.1415    -0.9372 H       
 202 H202         -20.1019    -2.4314    -2.4804 H       
 203 H203         -17.3700    -1.9663    -3.0253 H       
 204 H204         -18.4496    -5.6022    -1.7557 H       
 205 H205         -15.9734    -3.8521    -3.4297 H       
 206 H206         -16.4394    -5.3736    -2.8906 H       
 207 H207         -23.0244     1.0829    -2.7184 H       
 208 H208         -24.2609     2.5526    -0.5187 H       
 209 H209         -24.6455     3.3844    -3.4300 H       
 210 H210         -25.5939     3.9965    -2.0537 H       
 211 H211         -23.5193     4.8670    -1.0113 H       
 212 H212         -22.5709     4.2549    -2.3876 H       
 213 H213         -23.8663     5.7060    -3.9255 H       
 214 H214         -24.8147     6.3180    -2.5491 H       
 215 H215         -22.0749     6.7100    -1.9865 H       
 216 H216         -23.8983     9.3224    -4.4048 H       
 217 H217         -21.1634     8.8837    -2.3251 H       
 218 H218         -21.9400     9.9709    -3.3437 H       
 219 H219         -27.2582    -0.6216    -0.8644 H       
 220 H220         -29.6998     0.6656    -0.5043 H       
 221 H221         -28.5722     0.2927     0.8405 H       
 222 H222         -28.8595     2.9132    -0.7350 H       
 223 H223         -28.7268     2.6874     1.0415 H       
 224 H224         -26.3986     2.0876     0.9103 H       
 225 H225         -26.5101     3.3415    -0.3626 H       
 226 H226         -29.6044    -1.0633    -2.1013 H       
 227 H227         -29.8000     0.4994    -4.5605 H       
 228 H228         -28.9592    -2.4335    -4.5570 H       
 229 H229         -29.4893    -1.5361    -6.0000 H       
 230 H230         -27.6460     0.0887    -5.6666 H       
 231 H231         -27.1159    -0.8087    -4.2237 H       
 232 H232         -25.1020    -0.7306    -6.0128 H       
 233 H233         -24.9945    -2.1363    -6.9266 H       
 234 H234         -31.5938    -0.8536    -6.0486 H       
 235 H235         -33.4604    -2.3107    -4.3396 H       
 236 H236         -34.1359     0.4123    -5.5388 H       
 237 H237         -35.3295    -0.7083    -4.8403 H       
 238 H238         -34.1287    -0.6359    -2.6720 H       
 239 H239         -32.9350     0.4847    -3.3705 H       
 240 H240         -34.7391     2.1247    -3.8223 H       
 241 H241         -35.9327     1.0042    -3.1239 H       
 242 H242         -33.8910     1.4300    -1.2195 H       
 243 H243         -35.5215     4.1172     0.3052 H       
 244 H244         -36.4873     3.1604    -2.8804 H       
 245 H245         -36.7831     4.2506    -1.6368 H       
 246 H246         -35.6426    -2.6323    -5.8878 H       
 247 H247         -34.9020    -2.6970    -8.7118 H       
 248 H248         -35.3624    -5.2400    -7.0901 H       
 249 H249         -35.3109    -5.1710    -8.8680 H       
 250 H250         -33.0073    -4.2589    -8.7658 H       
 251 H251         -33.0588    -4.3280    -6.9879 H       
 252 H252         -31.0131    -5.8396    -7.8784 H       
 253 H253         -31.4009    -7.4726    -7.9531 H       
 254 H254         -36.9221    -4.0430    -9.8823 H       
 255 H255         -39.2850    -2.6440    -8.8886 H       
 256 H256         -38.8286    -4.4472   -11.3071 H       
 257 H257         -40.3534    -3.6007   -10.9514 H       
 258 H258         -39.1623    -1.4269   -11.0184 H       
 259 H259         -37.6374    -2.2735   -11.3741 H       
 260 H260         -38.6297    -3.1866   -13.4550 H       
 261 H261         -40.1545    -2.3401   -13.0994 H       
 262 H262         -38.9634    -0.1663   -13.1664 H       
 263 H263         -37.4385    -1.0128   -13.5220 H       
 264 H264         -39.8539    -1.1416   -15.2066 H       
 265 H265         -38.5061    -0.2218   -15.5278 H       
 266 H266         -41.2673    -5.6614    -8.2443 H       
 267 H267          19.4247    19.7175    -6.7826 H       
 268 H268          19.2170    18.7663    -8.2726 H       
 269 H269          18.1020    20.1052    -7.9088 H       
 270 H270          18.3709    17.5256    -6.2994 H       
 271 H271          17.2560    18.8645    -5.9356 H       
 272 H272          16.1599    18.5501    -8.1375 H       
 273 H273          17.2749    17.2112    -8.5013 H       
 274 H274          16.4288    15.9705    -6.5281 H       
 275 H275          15.3139    17.3095    -6.1643 H       
 276 H276          14.2178    16.9950    -8.3662 H       
 277 H277          15.3327    15.6561    -8.7300 H       
 278 H278          14.4867    14.4154    -6.7567 H       
 279 H279          13.3717    15.7544    -6.3929 H       
 280 H280          12.2757    15.4399    -8.5948 H       
 281 H281          13.3906    14.1010    -8.9586 H       
 282 H282          12.5446    12.8603    -6.9854 H       
 283 H283          11.4296    14.1993    -6.6216 H       
 284 H284          10.3336    13.8848    -8.8235 H       
 285 H285          11.4485    12.5459    -9.1873 H       
 286 H286          10.6025    11.3052    -7.2141 H       
 287 H287           9.4875    12.6442    -6.8503 H       
 288 H288           8.3914    12.3298    -9.0522 H       
 289 H289           9.5064    10.9908    -9.4160 H       
 290 H290           8.6604     9.7502    -7.4428 H       
 291 H291           7.5454    11.0891    -7.0790 H       
 292 H292           6.4493    10.7747    -9.2809 H       
 293 H293           7.5643     9.4357    -9.6447 H       
 294 H294           6.7182     8.1951    -7.6714 H       
 295 H295           5.6033     9.5340    -7.3076 H       
 296 H296           5.6222     7.8806    -9.8734 H       
 297 H297           4.5072     9.2196    -9.5095 H       
@<TRIPOS>BOND
   1    1    2 2
   2    1    4 1
   3    1   14 am
   4    3    4 1
   5    3  139 1
   6    3  140 1
   7    4    5 1
   8    4  141 1
   9    5    6 1
  10    5  142 1
  11    5  143 1
  12    6    7 1
  13    6  144 1
  14    6  145 1
  15    7    8 1
  16    7  146 1
  17    7  147 1
  18    8    9 1
  19    8  148 1
  20    9   10 2
  21    9   11 1
  22   10  149 1
  23   11  122 am
  24   11  150 1
  25   12   13 2
  26   12   15 1
  27   12   22 am
  28   14   15 1
  29   14  151 1
  30   15   16 1
  31   15  152 1
  32   16   17 1
  33   16  153 1
  34   16  154 1
  35   17   18 1
  36   17   19 1
  37   17  155 1
  38   18  156 1
  39   18  157 1
  40   18  158 1
  41   19  159 1
  42   19  160 1
  43   19  161 1
  44   20   21 2
  45   20   23 1
  46   20   33 am
  47   22   23 1
  48   22  162 1
  49   23   24 1
  50   23  163 1
  51   24   25 1
  52   24  164 1
  53   24  165 1
  54   25   26 1
  55   25  166 1
  56   25  167 1
  57   26   27 1
  58   26  168 1
  59   26  169 1
  60   27   28 1
  61   27  170 1
  62   28   29 2
  63   28   30 1
  64   29  171 1
  65   30  172 1
  66   30  173 1
  67   31   32 2
  68   31   34 1
  69   31   42 am
  70   33   34 1
  71   33  174 1
  72   34   35 1
  73   34  175 1
  74   35   36 1
  75   35  176 1
  76   35  177 1
  77   36   37 1
  78   36  178 1
  79   36  179 1
  80   37   38 2
  81   37   39 am
  82   39  180 1
  83   39  181 1
  84   40   41 2
  85   40   43 1
  86   40   47 am
  87   42   43 1
  88   42  182 1
  89   43   44 1
  90   43  183 1
  91   44  184 1
  92   44  185 1
  93   44  186 1
  94   45   46 2
  95   45   48 1
  96   45   56 am
  97   47   48 1
  98   47  187 1
  99   48   49 1
 100   48  188 1
 101   49   50 1
 102   49  189 1
 103   49  190 1
 104   50   51 1
 105   50  191 1
 106   50  192 1
 107   51   52 2
 108   51   53 am
 109   53  193 1
 110   53  194 1
 111   54   55 2
 112   54   57 1
 113   54   67 am
 114   56   57 1
 115   56  195 1
 116   57   58 1
 117   57  196 1
 118   58   59 1
 119   58  197 1
 120   58  198 1
 121   59   60 1
 122   59  199 1
 123   59  200 1
 124   60   61 1
 125   60  201 1
 126   60  202 1
 127   61   62 1
 128   61  203 1
 129   62   63 2
 130   62   64 1
 131   63  204 1
 132   64  205 1
 133   64  206 1
 134   65   66 2
 135   65   68 1
 136   65   78 am
 137   67   68 1
 138   67  207 1
 139   68   69 1
 140   68  208 1
 141   69   70 1
 142   69  209 1
 143   69  210 1
 144   70   71 1
 145   70  211 1
 146   70  212 1
 147   71   72 1
 148   71  213 1
 149   71  214 1
 150   72   73 1
 151   72  215 1
 152   73   74 2
 153   73   75 1
 154   74  216 1
 155   75  217 1
 156   75  218 1
 157   76   77 2
 158   76   85 am
 159   76   79 1
 160   78   79 1
 161   78   82 1
 162   79   80 1
 163   79  219 1
 164   80   81 1
 165   80  220 1
 166   80  221 1
 167   81   82 1
 168   81  222 1
 169   81  223 1
 170   82  224 1
 171   82  225 1
 172   83   84 2
 173   83   86 1
 174   83   94 am
 175   85   86 1
 176   85  226 1
 177   86   87 1
 178   86  227 1
 179   87   88 1
 180   87  228 1
 181   87  229 1
 182   88   89 1
 183   88  230 1
 184   88  231 1
 185   89   90 2
 186   89   91 am
 187   91  232 1
 188   91  233 1
 189   92   93 2
 190   92   95 1
 191   92  105 am
 192   94   95 1
 193   94  234 1
 194   95   96 1
 195   95  235 1
 196   96   97 1
 197   96  236 1
 198   96  237 1
 199   97   98 1
 200   97  238 1
 201   97  239 1
 202   98   99 1
 203   98  240 1
 204   98  241 1
 205   99  100 1
 206   99  242 1
 207  100  101 2
 208  100  102 1
 209  101  243 1
 210  102  244 1
 211  102  245 1
 212  103  104 2
 213  103  106 1
 214  103  114 am
 215  105  106 1
 216  105  246 1
 217  106  107 1
 218  106  247 1
 219  107  108 1
 220  107  248 1
 221  107  249 1
 222  108  109 1
 223  108  250 1
 224  108  251 1
 225  109  110 2
 226  109  111 am
 227  111  252 1
 228  111  253 1
 229  112  113 2
 230  112  115 1
 231  112  121 1
 232  114  115 1
 233  114  254 1
 234  115  116 1
 235  115  255 1
 236  116  117 1
 237  116  256 1
 238  116  257 1
 239  117  118 1
 240  117  258 1
 241  117  259 1
 242  118  119 1
 243  118  260 1
 244  118  261 1
 245  119  120 1
 246  119  262 1
 247  119  263 1
 248  120  264 1
 249  120  265 1
 250  121  266 1
 251  122  123 2
 252  122  138 1
 253  124  125 1
 254  124  267 1
 255  124  268 1
 256  124  269 1
 257  125  126 1
 258  125  270 1
 259  125  271 1
 260  126  127 1
 261  126  272 1
 262  126  273 1
 263  127  128 1
 264  127  274 1
 265  127  275 1
 266  128  129 1
 267  128  276 1
 268  128  277 1
 269  129  130 1
 270  129  278 1
 271  129  279 1
 272  130  131 1
 273  130  280 1
 274  130  281 1
 275  131  132 1
 276  131  282 1
 277  131  283 1
 278  132  133 1
 279  132  284 1
 280  132  285 1
 281  133  134 1
 282  133  286 1
 283  133  287 1
 284  134  135 1
 285  134  288 1
 286  134  289 1
 287  135  136 1
 288  135  290 1
 289  135  291 1
 290  136  137 1
 291  136  292 1
 292  136  293 1
 293  137  138 1
 294  137  294 1
 295  137  295 1
 296  138  296 1
 297  138  297 1

#	End of record

