#	Name: ASD01410690
#	Creating user name:	WinNT
#	Creation time:	15. 06. 2019 19:18

#	Modifying user name:	WinNT
#	Modification time:	15. 06. 2019 19:18

#	Program:	/corina/corina34_cracker 3.40 0067  02.08.2006

@<TRIPOS>MOLECULE
ASD01410690
  58   60    0    0    0
SMALL
NO_CHARGES


@<TRIPOS>ATOM
   1 C1             1.2628     2.9685    -3.1967 C.ar    
   2 C2             1.7537     2.2074    -4.2484 C.ar    
   3 C3             2.9114     1.4758    -4.0703 C.ar    
   4 N4             3.5515     1.4932    -2.9169 N.ar    
   5 C5             3.1150     2.2061    -1.8914 C.ar    
   6 C6             1.9573     2.9659    -1.9994 C.ar    
   7 O7             3.8048     2.1950    -0.7232 O.3     
   8 C8             4.8741     1.3607    -0.6210 C.ar    
   9 C9             6.1017     1.7363    -1.1606 C.ar    
  10 C10            7.1944     0.8951    -1.0618 C.ar    
  11 C11            7.0736    -0.3307    -0.4235 C.ar    
  12 C12            5.8381    -0.7142     0.1223 C.ar    
  13 C13            4.7404     0.1458     0.0227 C.ar    
  14 F14            6.2254     2.9284    -1.7842 F       
  15 N15            8.1744    -1.1785    -0.3247 N.am    
  16 C16            8.9176    -1.1898     0.7995 C.2     
  17 C17            8.5243    -2.0579    -1.4430 C.3     
  18 O18            9.9197    -1.8749     0.8587 O.2     
  19 C19            8.5132    -0.3677     1.9626 C.ar    
  20 N20            7.3638     0.2964     1.9312 N.ar    
  21 C21            6.9675     1.0375     2.9421 C.ar    
  22 C22            7.7425     1.1532     4.0873 C.ar    
  23 C23            8.9508     0.4757     4.1614 C.ar    
  24 C24            9.3394    -0.3021     3.0826 C.ar    
  25 C25            7.3644    -2.1015    -2.4398 C.3     
  26 C26            9.7763    -1.5223    -2.1405 C.3     
  27 O27           10.8877    -1.5937    -1.2452 O.3     
  28 C28           12.1139    -1.1149    -1.8015 C.3     
  29 Cl29           7.2057     2.1363     5.4136 Cl      
  30 O30            6.2407    -2.7448    -1.8352 O.3     
  31 C31            5.0969    -2.8382    -2.6866 C.3     
  32 C32            5.7008    -2.0135     0.8016 C.2     
  33 O33            6.6773    -2.7169     0.9709 O.2     
  34 O34            4.4922    -2.4226     1.2355 O.3     
  35 C35            1.4638     3.7764    -0.8287 C.3     
  36 F36            0.2897     4.4471    -1.1876 F       
  37 F37            1.2034     2.9255     0.2509 F       
  38 F38            2.4402     4.7089    -0.4624 F       
  39 H39            0.3620     3.5531    -3.3114 H       
  40 H40            1.2357     2.1873    -5.1959 H       
  41 H41            3.2974     0.8817    -4.8854 H       
  42 H42            8.1436     1.1926    -1.4825 H       
  43 H43            3.7873    -0.1429     0.4407 H       
  44 H44            8.7190    -3.0626    -1.0679 H       
  45 H45            6.0263     1.5636     2.8803 H       
  46 H46            9.5724     0.5494     5.0415 H       
  47 H47           10.2738    -0.8432     3.1061 H       
  48 H48            7.0915    -1.0854    -2.7244 H       
  49 H49            7.6680    -2.6581    -3.3264 H       
  50 H50            9.9839    -2.1231    -3.0260 H       
  51 H51            9.6128    -0.4856    -2.4349 H       
  52 H52           12.9080    -1.2027    -1.0600 H       
  53 H53           12.3700    -1.7072    -2.6799 H       
  54 H54           11.9989    -0.0698    -2.0888 H       
  55 H55            5.3534    -3.4100    -3.5784 H       
  56 H56            4.2877    -3.3384    -2.1545 H       
  57 H57            4.7770    -1.8373    -2.9764 H       
  58 H58            4.4518    -3.2827     1.6756 H       
@<TRIPOS>BOND
   1    1    2 ar
   2    1    6 ar
   3    1   39 1
   4    2    3 ar
   5    2   40 1
   6    3    4 ar
   7    3   41 1
   8    4    5 ar
   9    5    6 ar
  10    5    7 1
  11    6   35 1
  12    7    8 1
  13    8    9 ar
  14    8   13 ar
  15    9   10 ar
  16    9   14 1
  17   10   11 ar
  18   10   42 1
  19   11   12 ar
  20   11   15 1
  21   12   13 ar
  22   12   32 1
  23   13   43 1
  24   15   16 am
  25   15   17 1
  26   16   18 2
  27   16   19 1
  28   17   25 1
  29   17   26 1
  30   17   44 1
  31   19   20 ar
  32   19   24 ar
  33   20   21 ar
  34   21   22 ar
  35   21   45 1
  36   22   23 ar
  37   22   29 1
  38   23   24 ar
  39   23   46 1
  40   24   47 1
  41   25   30 1
  42   25   48 1
  43   25   49 1
  44   26   27 1
  45   26   50 1
  46   26   51 1
  47   27   28 1
  48   28   52 1
  49   28   53 1
  50   28   54 1
  51   30   31 1
  52   31   55 1
  53   31   56 1
  54   31   57 1
  55   32   33 2
  56   32   34 1
  57   34   58 1
  58   35   36 1
  59   35   37 1
  60   35   38 1

#	End of record

