#	Name: ASD01814713
#	Creating user name:	WinNT
#	Creation time:	15. 06. 2019 19:32

#	Modifying user name:	WinNT
#	Modification time:	15. 06. 2019 19:32

#	Program:	/corina/corina34_cracker 3.40 0067  02.08.2006

@<TRIPOS>MOLECULE
ASD01814713
  69   74    0    0    0
SMALL
NO_CHARGES


@<TRIPOS>ATOM
   1 O1            -0.1677     1.1067     0.1344 O.3     
   2 C2            -0.1616    -0.3175     0.0174 C.3     
   3 H3             0.3816    -0.6058    -0.8826 H       
   4 C4             0.5220    -0.9270     1.2430 C.3     
   5 C5             0.5285    -2.4519     1.1176 C.3     
   6 C6            -0.9111    -2.9625     1.0299 C.3     
   7 C7            -1.5947    -2.3530    -0.1956 C.3     
   8 C8            -1.6012    -0.8282    -0.0703 C.3     
   9 H9            -2.1444    -0.5399     0.8297 H       
  10 N10           -2.2558    -0.2445    -1.2438 N.am    
  11 C11           -1.7397    -0.4852    -2.4821 C.2     
  12 C12           -2.2918     0.0203    -3.6010 C.2     
  13 C13           -3.4457     0.8303    -3.5179 C.ar    
  14 C14           -4.0042     1.0979    -2.2540 C.ar    
  15 C15           -5.1512     1.9007    -2.1420 C.ar    
  16 C16           -5.7444     2.4334    -3.2369 C.ar    
  17 C17           -6.9736     3.2889    -3.0694 C.3     
  18 N18           -6.6178     4.7008    -3.2639 N.3     
  19 C19           -5.4708     5.0746    -2.4265 C.3     
  20 C20           -5.0378     6.5039    -2.7607 C.3     
  21 C21           -6.2087     7.4584    -2.5106 C.3     
  22 C22           -7.4056     7.0184    -3.3582 C.3     
  23 C23           -7.7700     5.5742    -3.0067 C.3     
  24 C24           -6.5758     7.4238    -1.0855 C.1     
  25 N25           -6.8592     7.3971     0.0142 N.1     
  26 C26           -5.8074     8.8592    -2.8948 C.ar    
  27 C27           -4.5409     9.1036    -3.3919 C.ar    
  28 C28           -4.1728    10.3886    -3.7443 C.ar    
  29 C29           -5.0713    11.4291    -3.6000 C.ar    
  30 C30           -6.3381    11.1846    -3.1037 C.ar    
  31 C31           -6.7077     9.8989    -2.7553 C.ar    
  32 C32           -5.2330     2.2029    -4.5300 C.ar    
  33 C33           -5.8498     2.7579    -5.6652 C.ar    
  34 C34           -5.3038     2.4963    -6.8912 C.ar    
  35 C35           -4.1674     1.6994    -6.9887 C.ar    
  36 N36           -3.5959     1.1840    -5.9249 N.ar    
  37 C37           -4.0795     1.4013    -4.7046 C.ar    
  38 C38           -3.3584     0.5140    -1.0738 C.2     
  39 O39           -3.8073     0.7139     0.0411 O.2     
  40 H40            0.7136     1.5001     0.1948 H       
  41 H41            1.5476    -0.5632     1.3054 H       
  42 H42           -0.0212    -0.6388     2.1429 H       
  43 H43            1.0717    -2.7402     0.2177 H       
  44 H44            1.0155    -2.8861     1.9907 H       
  45 H45           -0.9065    -4.0489     0.9407 H       
  46 H46           -1.4543    -2.6743     1.9299 H       
  47 H47           -1.0515    -2.6413    -1.0956 H       
  48 H48           -2.6203    -2.7168    -0.2581 H       
  49 H49           -0.8575    -1.1022    -2.5686 H       
  50 H50           -1.8515    -0.1937    -4.5637 H       
  51 H51           -5.5680     2.0964    -1.1651 H       
  52 H52           -7.7219     2.9980    -3.8067 H       
  53 H53           -7.3785     3.1510    -2.0669 H       
  54 H54           -5.7544     5.0174    -1.3756 H       
  55 H55           -4.6438     4.3906    -2.6171 H       
  56 H56           -4.1964     6.7865    -2.1280 H       
  57 H57           -4.7409     6.5587    -3.8080 H       
  58 H58           -8.2559     7.6686    -3.1524 H       
  59 H59           -7.1460     7.0813    -4.4149 H       
  60 H60           -8.6129     5.2530    -3.6187 H       
  61 H61           -8.0428     5.5146    -1.9531 H       
  62 H62           -3.8389     8.2907    -3.5047 H       
  63 H63           -3.1830    10.5796    -4.1320 H       
  64 H64           -4.7834    12.4332    -3.8746 H       
  65 H65           -7.0400    11.9976    -2.9906 H       
  66 H66           -7.6987     9.7073    -2.3711 H       
  67 H67           -6.7318     3.3741    -5.5713 H       
  68 H68           -5.7541     2.9075    -7.7826 H       
  69 H69           -3.7456     1.4997    -7.9626 H       
@<TRIPOS>BOND
   1    1    2 1
   2    1   40 1
   3    2    3 1
   4    2    8 1
   5    2    4 1
   6    4    5 1
   7    4   41 1
   8    4   42 1
   9    5    6 1
  10    5   43 1
  11    5   44 1
  12    6    7 1
  13    6   45 1
  14    6   46 1
  15    7    8 1
  16    7   47 1
  17    7   48 1
  18    8    9 1
  19    8   10 1
  20   10   38 am
  21   10   11 1
  22   11   12 2
  23   11   49 1
  24   12   13 1
  25   12   50 1
  26   13   37 ar
  27   13   14 ar
  28   14   15 ar
  29   14   38 1
  30   15   16 ar
  31   15   51 1
  32   16   17 1
  33   16   32 ar
  34   17   18 1
  35   17   52 1
  36   17   53 1
  37   18   23 1
  38   18   19 1
  39   19   20 1
  40   19   54 1
  41   19   55 1
  42   20   21 1
  43   20   56 1
  44   20   57 1
  45   21   22 1
  46   21   24 1
  47   21   26 1
  48   22   23 1
  49   22   58 1
  50   22   59 1
  51   23   60 1
  52   23   61 1
  53   24   25 3
  54   26   31 ar
  55   26   27 ar
  56   27   28 ar
  57   27   62 1
  58   28   29 ar
  59   28   63 1
  60   29   30 ar
  61   29   64 1
  62   30   31 ar
  63   30   65 1
  64   31   66 1
  65   32   37 ar
  66   32   33 ar
  67   33   34 ar
  68   33   67 1
  69   34   35 ar
  70   34   68 1
  71   35   36 ar
  72   35   69 1
  73   36   37 ar
  74   38   39 2

#	End of record

