#	Name: ASD02198405
#	Creating user name:	WinNT
#	Creation time:	15. 06. 2019 20:19

#	Modifying user name:	WinNT
#	Modification time:	15. 06. 2019 20:19

#	Program:	/corina/corina34_cracker 3.40 0067  02.08.2006

@<TRIPOS>MOLECULE
ASD02198405
  42   45    0    0    0
SMALL
NO_CHARGES


@<TRIPOS>ATOM
   1 C1            -0.2107     1.0821    -0.3402 C.2     
   2 C2            -0.1183    -0.2634    -0.3572 C.2     
   3 S3             1.3997     1.7784    -0.2154 S.3     
   4 C4             2.1244     0.1762    -0.1927 C.2     
   5 C5             1.1674    -0.7539    -0.2758 C.2     
   6 S6             3.8514    -0.1538    -0.0786 S.o2    
   7 N7             4.4415    -0.2178    -1.6245 N.am    
   8 C8             4.3245     0.8907    -2.4617 C.ar    
   9 C9             4.0844     0.7146    -3.8428 C.ar    
  10 C10            3.9683     1.8546    -4.6754 C.ar    
  11 C11            4.0931     3.1383    -4.1221 C.ar    
  12 C12            4.3275     3.2813    -2.7729 C.ar    
  13 C13            4.4368     2.1618    -1.9455 C.ar    
  14 N14            3.9667    -0.5077    -4.3686 N.ar    
  15 C15            3.7443    -0.6813    -5.6486 C.ar    
  16 C16            3.6196     0.3959    -6.5234 C.ar    
  17 C17            3.7289     1.6727    -6.0514 C.ar    
  18 O18            4.4390     0.9890     0.5282 O.2     
  19 O19            3.9750    -1.4659     0.4528 O.2     
  20 C20           -1.4686     1.8515    -0.4204 C.ar    
  21 N21           -2.6287     1.2107    -0.5183 N.ar    
  22 C22           -1.4307     3.2466    -0.3870 C.ar    
  23 C23           -2.6176     3.9527    -0.4626 C.ar    
  24 C24           -3.8061     3.2430    -0.5693 C.ar    
  25 C25           -3.7722     1.8611    -0.5916 C.ar    
  26 O26            4.4479     4.5254    -2.2398 O.3     
  27 C27            4.3201     5.6307    -3.1366 C.3     
  28 H28           -0.9834    -0.9060    -0.4285 H       
  29 H29            1.3857    -1.8116    -0.2786 H       
  30 H30            4.8685    -1.0267    -1.9476 H       
  31 H31            4.0059     4.0109    -4.7524 H       
  32 H32            4.6204     2.2945    -0.8896 H       
  33 H33            3.6557    -1.6858    -6.0354 H       
  34 H34            3.4364     0.2214    -7.5733 H       
  35 H35            3.6350     2.5196    -6.7150 H       
  36 H36           -0.4881     3.7671    -0.3029 H       
  37 H37           -2.6199     5.0325    -0.4388 H       
  38 H38           -4.7492     3.7657    -0.6299 H       
  39 H39           -4.6955     1.3070    -0.6745 H       
  40 H40            3.3361     5.6067    -3.6049 H       
  41 H41            4.4366     6.5627    -2.5835 H       
  42 H42            5.0901     5.5657    -3.9053 H       
@<TRIPOS>BOND
   1    1    2 2
   2    1    3 1
   3    1   20 1
   4    2    5 1
   5    2   28 1
   6    3    4 1
   7    4    5 2
   8    4    6 1
   9    5   29 1
  10    6    7 am
  11    6   18 2
  12    6   19 2
  13    7    8 1
  14    7   30 1
  15    8    9 ar
  16    8   13 ar
  17    9   10 ar
  18    9   14 ar
  19   10   11 ar
  20   10   17 ar
  21   11   12 ar
  22   11   31 1
  23   12   13 ar
  24   12   26 1
  25   13   32 1
  26   14   15 ar
  27   15   16 ar
  28   15   33 1
  29   16   17 ar
  30   16   34 1
  31   17   35 1
  32   20   21 ar
  33   20   22 ar
  34   21   25 ar
  35   22   23 ar
  36   22   36 1
  37   23   24 ar
  38   23   37 1
  39   24   25 ar
  40   24   38 1
  41   25   39 1
  42   26   27 1
  43   27   40 1
  44   27   41 1
  45   27   42 1

#	End of record

