#	Name: ASD01882183
#	Creating user name:	WinNT
#	Creation time:	15. 06. 2019 19:44

#	Modifying user name:	WinNT
#	Modification time:	15. 06. 2019 19:44

#	Program:	/corina/corina34_cracker 3.40 0067  02.08.2006

@<TRIPOS>MOLECULE
ASD01882183
  14   14    0    0    0
SMALL
NO_CHARGES


@<TRIPOS>ATOM
   1 C1             0.0021    -0.0041     0.0020 C.1     
   2 C2            -0.0173     1.4278     0.0099 C.ar    
   3 C3             1.1783     2.1576     0.0024 C.ar    
   4 C4             1.1044     3.5408     0.0100 C.ar    
   5 C5            -0.1336     4.1563     0.0247 C.ar    
   6 N6            -1.2482     3.4508     0.0320 N.ar    
   7 C7            -1.2363     2.1271     0.0194 C.ar    
   8 N8             0.0175    -1.1399    -0.0042 N.1     
   9 Br9            2.8514     1.2766    -0.0170 Br      
  10 N10           -2.4308     1.4280     0.0212 N.pl3   
  11 H11            2.0069     4.1340     0.0050 H       
  12 H12           -0.1891     5.2348     0.0306 H       
  13 H13           -2.4251     0.4580     0.0159 H       
  14 H14           -3.2737     1.9080     0.0277 H       
@<TRIPOS>BOND
   1    1    2 1
   2    1    8 3
   3    2    3 ar
   4    2    7 ar
   5    3    4 ar
   6    3    9 1
   7    4    5 ar
   8    4   11 1
   9    5    6 ar
  10    5   12 1
  11    6    7 ar
  12    7   10 1
  13   10   13 1
  14   10   14 1

#	End of record

