#	Name: ASD09890016
#	Creating user name:	WinNT
#	Creation time:	15. 06. 2019 21:24

#	Modifying user name:	WinNT
#	Modification time:	15. 06. 2019 21:24

#	Program:	/corina/corina34_cracker 3.40 0067  02.08.2006

@<TRIPOS>MOLECULE
ASD09890016
  72   77    0    0    0
SMALL
NO_CHARGES


@<TRIPOS>ATOM
   1 C1             0.1529     1.0728     0.7044 C.2     
   2 C2            -0.0214    -0.3041     1.1956 C.2     
   3 C3             0.6535    -0.6383     2.3094 C.2     
   4 C4             1.5190     0.4179     2.9553 C.3     
   5 C5             2.3382     1.1328     1.8746 C.3     
   6 C6             1.5537     1.6389     0.6713 C.3     
   7 C7             2.2238     1.2544    -0.6513 C.3     
   8 C8             3.8004     0.7386     1.7286 C.3     
   9 C9             4.4437     0.7373     0.3537 C.3     
  10 C10            3.7001     1.6813    -0.6012 C.3     
  11 C11            2.1519     1.8416    -3.1330 C.3     
  12 C12            1.4538     1.9496    -1.7726 C.3     
  13 C13            3.5372     2.4418    -2.9608 C.3     
  14 C14            4.4232     2.4488    -4.2036 C.3     
  15 C15            4.2961     1.5037    -1.9875 C.3     
  16 C16            5.7427     1.9830    -2.1521 C.3     
  17 C17            5.8622     2.2087    -3.6839 C.3     
  18 C18            4.0092     1.3249    -5.1557 C.3     
  19 C19            4.8109     1.4353    -6.4542 C.3     
  20 C20            4.9518     0.5682    -8.7846 C.2     
  21 C21            4.3939     0.3169    -7.4111 C.3     
  22 O22            4.5402     2.7208    -7.0882 O.3     
  23 C23            5.2143     2.9206    -8.2495 C.2     
  24 C24            5.3293     1.7794    -9.1754 C.2     
  25 C25            5.0866    -0.5865    -9.7435 C.3     
  26 C26            5.8745     1.9876   -10.5648 C.3     
  27 O27            5.1095     2.9941   -11.2308 O.3     
  28 O28            5.7044     4.0003    -8.5160 O.2     
  29 O29            3.4138     1.9694     2.3283 O.3     
  30 O30            0.6903     1.3661     3.6308 O.3     
  31 O31           -0.7970     1.7301     0.3334 O.2     
  32 C32            1.4716     3.1651     0.7408 C.3     
  33 C33            3.4292     3.8450    -2.3607 C.3     
  34 C34            4.2869    -0.0285    -4.4984 C.3     
  35 H35           -0.6601    -1.0107     0.6865 H       
  36 H36            0.5788    -1.6306     2.7292 H       
  37 H37            2.1931    -0.0521     3.6714 H       
  38 H38            2.1630     0.1747    -0.7881 H       
  39 H39            4.1704    -0.0260     2.4117 H       
  40 H40            5.4804     1.0620     0.4431 H       
  41 H41            4.4198    -0.2742    -0.0519 H       
  42 H42            3.7891     2.7145    -0.2655 H       
  43 H43            2.2328     0.7956    -3.4287 H       
  44 H44            1.5939     2.4006    -3.8841 H       
  45 H45            0.4636     1.5005    -1.8495 H       
  46 H46            1.3400     3.0037    -1.5192 H       
  47 H47            4.3597     3.4135    -4.7070 H       
  48 H48            4.1913     0.4674    -2.3088 H       
  49 H49            5.9040     2.9154    -1.6112 H       
  50 H50            6.4430     1.2168    -1.8194 H       
  51 H51            6.2894     1.3261    -4.1599 H       
  52 H52            6.4834     3.0811    -3.8862 H       
  53 H53            2.9453     1.4098    -5.3772 H       
  54 H54            5.8754     1.3532    -6.2345 H       
  55 H55            4.7696    -0.6358    -7.0380 H       
  56 H56            3.3060     0.2760    -7.4658 H       
  57 H57            4.2084    -0.6282   -10.3877 H       
  58 H58            5.9791    -0.4494   -10.3541 H       
  59 H59            5.1700    -1.5171    -9.1821 H       
  60 H60            6.9157     2.3041   -10.5029 H       
  61 H61            5.8112     1.0539   -11.1236 H       
  62 H62            5.4051     3.1806   -12.1324 H       
  63 H63            0.1410     0.9821     4.3279 H       
  64 H64            1.1245     3.4656     1.7294 H       
  65 H65            2.4580     3.5908     0.5572 H       
  66 H66            0.7736     3.5261    -0.0146 H       
  67 H67            2.9513     3.7862    -1.3828 H       
  68 H68            4.4264     4.2717    -2.2527 H       
  69 H69            2.8330     4.4769    -3.0190 H       
  70 H70            5.3081    -0.0447    -4.1175 H       
  71 H71            3.5895    -0.1824    -3.6750 H       
  72 H72            4.1610    -0.8225    -5.2344 H       
@<TRIPOS>BOND
   1    1    2 1
   2    1    6 1
   3    1   31 2
   4    2    3 2
   5    2   35 1
   6    3    4 1
   7    3   36 1
   8    4    5 1
   9    4   30 1
  10    4   37 1
  11    5    6 1
  12    5   29 1
  13    5    8 1
  14    6   32 1
  15    6    7 1
  16    7   10 1
  17    7   12 1
  18    7   38 1
  19    8    9 1
  20    8   29 1
  21    8   39 1
  22    9   10 1
  23    9   40 1
  24    9   41 1
  25   10   15 1
  26   10   42 1
  27   11   12 1
  28   11   13 1
  29   11   43 1
  30   11   44 1
  31   12   45 1
  32   12   46 1
  33   13   15 1
  34   13   33 1
  35   13   14 1
  36   14   17 1
  37   14   18 1
  38   14   47 1
  39   15   16 1
  40   15   48 1
  41   16   17 1
  42   16   49 1
  43   16   50 1
  44   17   51 1
  45   17   52 1
  46   18   19 1
  47   18   34 1
  48   18   53 1
  49   19   22 1
  50   19   21 1
  51   19   54 1
  52   20   21 1
  53   20   24 2
  54   20   25 1
  55   21   55 1
  56   21   56 1
  57   22   23 1
  58   23   24 1
  59   23   28 2
  60   24   26 1
  61   25   57 1
  62   25   58 1
  63   25   59 1
  64   26   27 1
  65   26   60 1
  66   26   61 1
  67   27   62 1
  68   30   63 1
  69   32   64 1
  70   32   65 1
  71   32   66 1
  72   33   67 1
  73   33   68 1
  74   33   69 1
  75   34   70 1
  76   34   71 1
  77   34   72 1

#	End of record

