#	Name: ASD01040014
#	Creating user name:	WinNT
#	Creation time:	15. 06. 2019 18:58

#	Modifying user name:	WinNT
#	Modification time:	15. 06. 2019 18:58

#	Program:	/corina/corina34_cracker 3.40 0067  02.08.2006

@<TRIPOS>MOLECULE
ASD01040014
  40   42    0    0    0
SMALL
NO_CHARGES


@<TRIPOS>ATOM
   1 C1            -0.0187     1.5242     0.0104 C.3     
   2 C2            -0.7509     2.0744    -1.1896 C.3     
   3 C3            -2.1510     1.4665    -1.3865 C.3     
   4 C4            -2.0943    -0.0611    -1.3120 C.3     
   5 C5            -1.4262    -0.5180    -0.0180 C.3     
   6 C6            -0.0433     1.7452    -2.5172 C.3     
   7 C7            -1.1440     1.9751    -3.5784 C.3     
   8 C8            -2.4832     1.8275    -2.8592 C.3     
   9 O9            -3.2142     3.0542    -2.9110 O.3     
  10 C10           -3.1672     2.0454    -0.4000 C.3     
  11 O11            2.6583    -1.8911     4.6003 O.3     
  12 F12            2.3177    -1.6009    -0.1287 F       
  13 F13            3.6105    -2.5196     2.1028 F       
  14 C14            0.0021    -0.0041     0.0020 C.3     
  15 C15            0.2311    -0.1922     2.4870 C.ar    
  16 C16            0.7133    -0.5095     1.2307 C.ar    
  17 C17            1.8485    -1.2912     1.0998 C.ar    
  18 C18            2.5030    -1.7563     2.2289 C.ar    
  19 C19            2.0184    -1.4369     3.4901 C.ar    
  20 C20            0.8808    -0.6534     3.6158 C.ar    
  21 H21            1.0065     1.8944     0.0026 H       
  22 H22           -0.5146     1.8687     0.9179 H       
  23 H23           -0.8409     3.1561    -1.0905 H       
  24 H24           -3.1080    -0.4598    -1.3521 H       
  25 H25           -1.5269    -0.4406    -2.1618 H       
  26 H26           -1.9662    -0.1106     0.8366 H       
  27 H27           -1.4273    -1.6070     0.0299 H       
  28 H28            0.7963     2.4205    -2.6824 H       
  29 H29            0.2920     0.7081    -2.5267 H       
  30 H30           -1.0538     2.9772    -3.9976 H       
  31 H31           -1.0609     1.2300    -4.3696 H       
  32 H32           -3.0617     1.0266    -3.3196 H       
  33 H33           -3.4514     3.3332    -3.8060 H       
  34 H34           -3.2395     3.1235    -0.5436 H       
  35 H35           -4.1420     1.5896    -0.5732 H       
  36 H36           -2.8439     1.8356     0.6196 H       
  37 H37            3.3449    -1.2952     4.9300 H       
  38 H38            0.5139    -0.3599    -0.8922 H       
  39 H39           -0.6521     0.4215     2.5862 H       
  40 H40            0.5048    -0.4009     4.5962 H       
@<TRIPOS>BOND
   1    1   14 1
   2    1   21 1
   3    1   22 1
   4    1    2 1
   5    2   23 1
   6    2    3 1
   7    2    6 1
   8    3    4 1
   9    3   10 1
  10    3    8 1
  11    4    5 1
  12    4   24 1
  13    4   25 1
  14    5   14 1
  15    5   26 1
  16    5   27 1
  17    6   28 1
  18    6   29 1
  19    6    7 1
  20    7    8 1
  21    7   30 1
  22    7   31 1
  23    8   32 1
  24    8    9 1
  25    9   33 1
  26   10   34 1
  27   10   35 1
  28   10   36 1
  29   11   37 1
  30   11   19 1
  31   12   17 1
  32   13   18 1
  33   14   16 1
  34   14   38 1
  35   15   20 ar
  36   15   39 1
  37   15   16 ar
  38   16   17 ar
  39   17   18 ar
  40   18   19 ar
  41   19   20 ar
  42   20   40 1

#	End of record

