#	Name: ASD01915040
#	Creating user name:	WinNT
#	Creation time:	15. 06. 2019 20:04

#	Modifying user name:	WinNT
#	Modification time:	15. 06. 2019 20:04

#	Program:	/corina/corina34_cracker 3.40 0067  02.08.2006

@<TRIPOS>MOLECULE
ASD01915040
  33   35    0    0    0
SMALL
NO_CHARGES


@<TRIPOS>ATOM
   1 C1            -0.0179     1.4712     0.0101 C.2     
   2 C2             0.0021    -0.0041     0.0020 C.ar    
   3 C3             1.2207    -0.6882    -0.0133 C.ar    
   4 C4             1.2350    -2.0651    -0.0209 C.ar    
   5 C5             0.0397    -2.7745    -0.0133 C.ar    
   6 C6            -1.1745    -2.0979     0.0015 C.ar    
   7 C7            -1.1975    -0.7212     0.0154 C.ar    
   8 O8             1.0266     2.0934     0.0035 O.2     
   9 N9            -1.1942     2.1292     0.0193 N.am    
  10 O10            0.0581    -4.1315    -0.0208 O.3     
  11 C11           -1.2062    -4.7975    -0.0124 C.3     
  12 C12           -1.2129     3.5125     0.0269 C.2     
  13 N13           -0.1061     4.3116     0.0260 N.pl3   
  14 C14           -0.5471     5.6238     0.0344 C.ar    
  15 C15           -1.9509     5.5638     0.0402 C.ar    
  16 N16           -2.2944     4.2495     0.0303 N.2     
  17 C17           -2.6898     6.7493     0.0493 C.ar    
  18 C18           -2.0371     7.9618     0.0524 C.ar    
  19 C19           -0.6513     8.0154     0.0461 C.ar    
  20 C20            0.0931     6.8537     0.0380 C.ar    
  21 H21            2.1498    -0.1378    -0.0195 H       
  22 H22            2.1762    -2.5945    -0.0331 H       
  23 H23           -2.1010    -2.6528     0.0069 H       
  24 H24           -2.1412    -0.1962     0.0321 H       
  25 H25           -2.0275     1.6328     0.0205 H       
  26 H26           -1.7586    -4.5170     0.8844 H       
  27 H27           -1.7756    -4.5074    -0.8954 H       
  28 H28           -1.0488    -5.8760    -0.0197 H       
  29 H29            0.8175     4.0151     0.0205 H       
  30 H30           -3.7692     6.7150     0.0534 H       
  31 H31           -2.6087     8.8781     0.0594 H       
  32 H32           -0.1515     8.9728     0.0479 H       
  33 H33            1.1720     6.9023     0.0338 H       
@<TRIPOS>BOND
   1    1    2 1
   2    1    8 2
   3    1    9 am
   4    2    3 ar
   5    2    7 ar
   6    3    4 ar
   7    3   21 1
   8    4    5 ar
   9    4   22 1
  10    5    6 ar
  11    5   10 1
  12    6    7 ar
  13    6   23 1
  14    7   24 1
  15    9   12 1
  16    9   25 1
  17   10   11 1
  18   11   26 1
  19   11   27 1
  20   11   28 1
  21   12   13 1
  22   12   16 2
  23   13   14 1
  24   13   29 1
  25   14   15 ar
  26   14   20 ar
  27   15   16 1
  28   15   17 ar
  29   17   18 ar
  30   17   30 1
  31   18   19 ar
  32   18   31 1
  33   19   20 ar
  34   19   32 1
  35   20   33 1

#	End of record

