#	Name: ASD01917252
#	Creating user name:	WinNT
#	Creation time:	15. 06. 2019 20:08

#	Modifying user name:	WinNT
#	Modification time:	15. 06. 2019 20:08

#	Program:	/corina/corina34_cracker 3.40 0067  02.08.2006

@<TRIPOS>MOLECULE
ASD01917252
  34   36    0    0    0
SMALL
NO_CHARGES


@<TRIPOS>ATOM
   1 C1            -0.0167     1.3781     0.0096 C.ar    
   2 C2             0.0021    -0.0041     0.0020 C.ar    
   3 C3             1.2084    -0.6789    -0.0132 C.ar    
   4 C4             2.3960     0.0285    -0.0212 C.ar    
   5 C5             2.3773     1.4107    -0.0145 C.ar    
   6 C6             1.1710     2.0855     0.0021 C.ar    
   7 C7             3.6720     2.1819    -0.0228 C.3     
   8 O8             4.0688     2.4320    -1.3726 O.3     
   9 C9             5.2256     3.1228    -1.5582 C.2     
  10 N10            6.0086     3.5789    -0.6023 N.2     
  11 N11            7.0891     4.2274    -1.1854 N.pl3   
  12 C12            6.9346     4.1505    -2.5522 C.2     
  13 C13            5.7843     3.4617    -2.7985 C.2     
  14 C14            8.2370     4.9021    -0.5785 C.3     
  15 C15            9.4381     4.7940    -1.5176 C.3     
  16 N16            9.1047     5.1222    -2.8983 N.am    
  17 C17            7.9273     4.7525    -3.4587 C.2     
  18 O18            7.7029     4.9091    -4.6439 O.2     
  19 C19            9.9776     3.3632    -1.4667 C.3     
  20 H20           -0.9592     1.9054     0.0170 H       
  21 H21           -0.9258    -0.5567     0.0083 H       
  22 H22            1.2231    -1.7588    -0.0184 H       
  23 H23            3.3386    -0.4987    -0.0324 H       
  24 H24            1.1563     3.1654     0.0069 H       
  25 H25            3.5335     3.1300     0.4968 H       
  26 H26            4.4443     1.6008     0.4812 H       
  27 H27            5.3752     3.2264    -3.7700 H       
  28 H28            7.9968     5.9525    -0.4140 H       
  29 H29            8.4758     4.4289     0.3740 H       
  30 H30           10.2169     5.4739    -1.1725 H       
  31 H31            9.7443     5.6198    -3.4315 H       
  32 H32            9.1984     2.6695    -1.7827 H       
  33 H33           10.8353     3.2743    -2.1334 H       
  34 H34           10.2835     3.1263    -0.4476 H       
@<TRIPOS>BOND
   1    1    2 ar
   2    1    6 ar
   3    1   20 1
   4    2    3 ar
   5    2   21 1
   6    3    4 ar
   7    3   22 1
   8    4    5 ar
   9    4   23 1
  10    5    6 ar
  11    5    7 1
  12    6   24 1
  13    7    8 1
  14    7   25 1
  15    7   26 1
  16    8    9 1
  17    9   10 2
  18    9   13 1
  19   10   11 1
  20   11   12 1
  21   11   14 1
  22   12   13 2
  23   12   17 1
  24   13   27 1
  25   14   15 1
  26   14   28 1
  27   14   29 1
  28   15   16 1
  29   15   19 1
  30   15   30 1
  31   16   17 am
  32   16   31 1
  33   17   18 2
  34   19   32 1
  35   19   33 1
  36   19   34 1

#	End of record

