#	Name: ASD01148798
#	Creating user name:	WinNT
#	Creation time:	15. 06. 2019 19:03

#	Modifying user name:	WinNT
#	Modification time:	15. 06. 2019 19:03

#	Program:	/corina/corina34_cracker 3.40 0067  02.08.2006

@<TRIPOS>MOLECULE
ASD01148798
  64   67    0    0    0
SMALL
NO_CHARGES


@<TRIPOS>ATOM
   1 N1             0.1100     1.5371     0.2177 N.pl3   
   2 C2            -0.1855     0.2205     0.1108 C.2     
   3 C3             0.9706    -0.5115     0.2723 C.2     
   4 C4             2.0497     0.4650     0.4955 C.2     
   5 C5             1.4525     1.7095     0.4500 C.2     
   6 C6             1.1006    -1.9749     0.2305 C.2     
   7 O7             1.3282    -2.5351    -0.8241 O.2     
   8 O8             0.9674    -2.6960     1.3617 O.3     
   9 C9            -0.8212     2.5773     0.1020 C.ar    
  10 C10           -1.8203     2.7259     1.0547 C.ar    
  11 C11           -2.7369     3.7524     0.9378 C.ar    
  12 C12           -2.6606     4.6314    -0.1270 C.ar    
  13 C13           -1.6668     4.4860    -1.0775 C.ar    
  14 C14           -0.7435     3.4652    -0.9628 C.ar    
  15 S15           -3.8326     5.9390    -0.2733 S.o2    
  16 O16           -3.8672     6.2947    -1.6486 O.2     
  17 O17           -4.9834     5.5295     0.4528 O.2     
  18 N18           -3.2119     7.2459     0.5323 N.am    
  19 C19           -1.5563    -0.3518    -0.1429 C.3     
  20 C20            2.1403     3.0045     0.6212 C.ar    
  21 C21            1.6889     3.9173     1.5773 C.ar    
  22 C22            2.3358     5.1254     1.7322 C.ar    
  23 C23            3.4307     5.4343     0.9424 C.ar    
  24 C24            3.8828     4.5338    -0.0076 C.ar    
  25 C25            3.2486     3.3198    -0.1682 C.ar    
  26 Cl26           4.2394     6.9572     1.1437 Cl      
  27 C27            3.4826     0.1725     0.7230 C.ar    
  28 C28            4.2425    -0.4255    -0.2833 C.ar    
  29 C29            5.5769    -0.6962    -0.0686 C.ar    
  30 C30            6.1657    -0.3742     1.1486 C.ar    
  31 C31            5.4116     0.2214     2.1527 C.ar    
  32 C32            4.0780     0.4994     1.9422 C.ar    
  33 N33            7.5200    -0.6507     1.3635 N.am    
  34 C34            8.3935    -0.5770     0.3399 C.2     
  35 O35            8.0229    -0.1857    -0.7467 O.2     
  36 C36            9.8308    -0.9808     0.5453 C.3     
  37 C37            1.1082    -4.1364     1.2457 C.3     
  38 C38            0.9264    -4.7792     2.6222 C.3     
  39 H39           -1.8807     2.0393     1.8862 H       
  40 H40           -3.5142     3.8685     1.6785 H       
  41 H41           -1.6099     5.1740    -1.9080 H       
  42 H42            0.0351     3.3549    -1.7030 H       
  43 H43           -2.3476     7.1815     0.9679 H       
  44 H44           -3.7127     8.0759     0.5686 H       
  45 H45           -1.7180    -0.4454    -1.2168 H       
  46 H46           -1.6317    -1.3344     0.3229 H       
  47 H47           -2.3108     0.3104     0.2818 H       
  48 H48            0.8350     3.6777     2.1936 H       
  49 H49            1.9876     5.8322     2.4709 H       
  50 H50            4.7367     4.7810    -0.6210 H       
  51 H51            3.6051     2.6164    -0.9061 H       
  52 H52            3.7855    -0.6762    -1.2292 H       
  53 H53            6.1654    -1.1593    -0.8468 H       
  54 H54            5.8719     0.4704     3.0974 H       
  55 H55            3.4936     0.9660     2.7213 H       
  56 H56            7.8303    -0.8953     2.2494 H       
  57 H57            9.9741    -1.3020     1.5770 H       
  58 H58           10.0775    -1.8015    -0.1283 H       
  59 H59           10.4805    -0.1310     0.3358 H       
  60 H60            0.3516    -4.5216     0.5621 H       
  61 H61            2.1000    -4.3748     0.8615 H       
  62 H62            1.6831    -4.3941     3.3058 H       
  63 H63           -0.0654    -4.5409     3.0063 H       
  64 H64            1.0321    -5.8605     2.5350 H       
@<TRIPOS>BOND
   1    1    2 1
   2    1    5 1
   3    1    9 1
   4    2    3 2
   5    2   19 1
   6    3    4 1
   7    3    6 1
   8    4    5 2
   9    4   27 1
  10    5   20 1
  11    6    7 2
  12    6    8 1
  13    8   37 1
  14    9   10 ar
  15    9   14 ar
  16   10   11 ar
  17   10   39 1
  18   11   12 ar
  19   11   40 1
  20   12   13 ar
  21   12   15 1
  22   13   14 ar
  23   13   41 1
  24   14   42 1
  25   15   16 2
  26   15   17 2
  27   15   18 am
  28   18   43 1
  29   18   44 1
  30   19   45 1
  31   19   46 1
  32   19   47 1
  33   20   21 ar
  34   20   25 ar
  35   21   22 ar
  36   21   48 1
  37   22   23 ar
  38   22   49 1
  39   23   24 ar
  40   23   26 1
  41   24   25 ar
  42   24   50 1
  43   25   51 1
  44   27   28 ar
  45   27   32 ar
  46   28   29 ar
  47   28   52 1
  48   29   30 ar
  49   29   53 1
  50   30   31 ar
  51   30   33 1
  52   31   32 ar
  53   31   54 1
  54   32   55 1
  55   33   34 am
  56   33   56 1
  57   34   35 2
  58   34   36 1
  59   36   57 1
  60   36   58 1
  61   36   59 1
  62   37   38 1
  63   37   60 1
  64   37   61 1
  65   38   62 1
  66   38   63 1
  67   38   64 1

#	End of record

