#	Name: ASD01912084
#	Creating user name:	WinNT
#	Creation time:	15. 06. 2019 19:59

#	Modifying user name:	WinNT
#	Modification time:	15. 06. 2019 19:59

#	Program:	/corina/corina34_cracker 3.40 0067  02.08.2006

@<TRIPOS>MOLECULE
ASD01912084
  54   57    0    0    0
SMALL
NO_CHARGES


@<TRIPOS>ATOM
   1 N1            -0.2214     1.3888    -0.1446 N.am    
   2 C2            -0.0828    -0.0517     0.1111 C.3     
   3 C3            -0.9977    -0.4319     1.2819 C.3     
   4 N4            -2.3373     0.1168     1.0283 N.am    
   5 C5            -2.4759     1.5573     0.7726 C.3     
   6 C6            -1.5617     1.9384    -0.3926 C.3     
   7 C7            -1.4808     3.4621    -0.5048 C.3     
   8 C8            -2.1160     1.3530    -1.6930 C.3     
   9 C9             0.8605     2.1925    -0.1462 C.2     
  10 C10            2.1847     1.6512     0.2321 C.2     
  11 O11            0.7486     3.3618    -0.4583 O.2     
  12 N12            2.4867     0.3661     0.4740 N.2     
  13 N13            3.7411     0.3172     0.7702 N.2     
  14 N14            4.2295     1.5072     0.7236 N.pl3   
  15 N15            3.3014     2.3374     0.3921 N.2     
  16 C16            5.5642     1.8462     0.9864 C.ar    
  17 C17            6.4782     0.8589     1.3292 C.ar    
  18 C18            5.9760     3.1693     0.8989 C.ar    
  19 C19            7.2917     3.5002     1.1579 C.ar    
  20 C20            8.1986     2.5153     1.5037 C.ar    
  21 C21            7.7926     1.1960     1.5871 C.ar    
  22 C22           -3.4193    -0.6869     1.0299 C.2     
  23 C23           -4.7713    -0.1067     0.8839 C.ar    
  24 O24           -3.2835    -1.8887     1.1513 O.2     
  25 C25           -5.7660    -0.8100     0.2031 C.ar    
  26 C26           -7.0256    -0.2628     0.0705 C.ar    
  27 C27           -7.3036     0.9801     0.6105 C.ar    
  28 C28           -6.3217     1.6829     1.2864 C.ar    
  29 C29           -5.0600     1.1445     1.4315 C.ar    
  30 C30           -8.1009    -1.0206    -0.6648 C.3     
  31 F31           -8.8017    -1.8286     0.2370 F       
  32 F32           -8.9837    -0.1150    -1.2629 F       
  33 F33           -7.5155    -1.8217    -1.6511 F       
  34 H34           -0.3747    -0.6108    -0.7778 H       
  35 H35            0.9520    -0.2800     0.3664 H       
  36 H36           -1.0562    -1.5173     1.3629 H       
  37 H37           -0.6005    -0.0144     2.2071 H       
  38 H38           -3.5107     1.7856     0.5172 H       
  39 H39           -2.1840     2.1165     1.6615 H       
  40 H40           -0.9737     3.8646     0.3721 H       
  41 H41           -0.9237     3.7313    -1.4022 H       
  42 H42           -2.4874     3.8760    -0.5642 H       
  43 H43           -3.1156     1.7489    -1.8726 H       
  44 H44           -1.4628     1.6259    -2.5218 H       
  45 H45           -2.1646     0.2672    -1.6110 H       
  46 H46            6.1617    -0.1716     1.3945 H       
  47 H47            5.2683     3.9389     0.6281 H       
  48 H48            7.6126     4.5292     1.0899 H       
  49 H49            9.2270     2.7764     1.7051 H       
  50 H50            8.5032     0.4290     1.8574 H       
  51 H51           -5.5501    -1.7803    -0.2193 H       
  52 H52           -8.2912     1.4040     0.5039 H       
  53 H53           -6.5450     2.6529     1.7054 H       
  54 H54           -4.2945     1.6940     1.9592 H       
@<TRIPOS>BOND
   1    1    2 1
   2    1    9 am
   3    1    6 1
   4    2    3 1
   5    2   34 1
   6    2   35 1
   7    3    4 1
   8    3   36 1
   9    3   37 1
  10    4    5 1
  11    4   22 am
  12    5    6 1
  13    5   38 1
  14    5   39 1
  15    6    7 1
  16    6    8 1
  17    7   40 1
  18    7   41 1
  19    7   42 1
  20    8   43 1
  21    8   44 1
  22    8   45 1
  23    9   10 1
  24    9   11 2
  25   10   12 1
  26   10   15 2
  27   12   13 2
  28   13   14 1
  29   14   15 1
  30   14   16 1
  31   16   17 ar
  32   16   18 ar
  33   17   21 ar
  34   17   46 1
  35   18   19 ar
  36   18   47 1
  37   19   20 ar
  38   19   48 1
  39   20   21 ar
  40   20   49 1
  41   21   50 1
  42   22   23 1
  43   22   24 2
  44   23   25 ar
  45   23   29 ar
  46   25   26 ar
  47   25   51 1
  48   26   27 ar
  49   26   30 1
  50   27   28 ar
  51   27   52 1
  52   28   29 ar
  53   28   53 1
  54   29   54 1
  55   30   31 1
  56   30   32 1
  57   30   33 1

#	End of record

