#	Name: ASD01914643
#	Creating user name:	WinNT
#	Creation time:	15. 06. 2019 20:03

#	Modifying user name:	WinNT
#	Modification time:	15. 06. 2019 20:03

#	Program:	/corina/corina34_cracker 3.40 0067  02.08.2006

@<TRIPOS>MOLECULE
ASD01914643
  56   61    0    0    0
SMALL
NO_CHARGES


@<TRIPOS>ATOM
   1 C1            -0.0171     1.4081     0.0098 C.ar    
   2 C2             0.0021    -0.0041     0.0020 C.ar    
   3 C3             1.2275    -0.6645    -0.0128 C.ar    
   4 C4             2.3823     0.0941    -0.0193 C.ar    
   5 C5             2.2916     1.4885    -0.0110 C.ar    
   6 N6             1.1148     2.0967     0.0027 N.ar    
   7 N7            -1.3037    -0.4299     0.0122 N.pl3   
   8 C8            -1.4327     1.7867     0.0312 C.2     
   9 C9            -2.1446     0.6481     0.0260 C.2     
  10 C10            3.5305     2.2990    -0.0176 C.2     
  11 O11            4.6152     1.7510    -0.0301 O.2     
  12 N12            3.4554     3.6447    -0.0097 N.am    
  13 C13            4.6813     4.4468    -0.0162 C.3     
  14 C14            4.3184     5.9331    -0.0049 C.3     
  15 C15            5.5987     6.7707    -0.0117 C.3     
  16 C16            6.4093     6.4532    -1.2699 C.3     
  17 C17            6.7722     4.9669    -1.2811 C.3     
  18 C18            7.6049     4.6358    -0.0409 C.3     
  19 C19            6.7943     4.9534     1.2173 C.3     
  20 C20            5.5140     4.1157     1.2240 C.3     
  21 C21            6.4313     6.4397     1.2285 C.3     
  22 C22            5.4919     4.1292    -1.2743 C.3     
  23 N23            5.2512     8.1939    -0.0010 N.am    
  24 C24            6.2252     9.1254    -0.0045 C.2     
  25 O25            7.3916     8.7849    -0.0167 O.2     
  26 C26            5.8737    10.5648     0.0063 C.ar    
  27 C27            6.8851    11.5228     0.0026 C.ar    
  28 C28            6.5408    12.8652     0.0124 C.ar    
  29 C29            5.1964    13.2029     0.0256 C.ar    
  30 C30            4.2434    12.1971     0.0286 C.ar    
  31 N31            4.5980    10.9306     0.0140 N.ar    
  32 H32            1.2744    -1.7434    -0.0187 H       
  33 H33            3.3489    -0.3875    -0.0304 H       
  34 H34           -1.5872    -1.3576     0.0096 H       
  35 H35           -1.8285     2.7915     0.0420 H       
  36 H36           -3.2231     0.5921     0.0360 H       
  37 H37            2.5897     4.0821     0.0003 H       
  38 H38            3.7252     6.1689    -0.8885 H       
  39 H39            3.7409     6.1593     0.8914 H       
  40 H40            5.8161     6.6890    -2.1534 H       
  41 H41            7.3214     7.0499    -1.2747 H       
  42 H42            7.3497     4.7406    -2.1774 H       
  43 H43            7.8634     3.5770    -0.0489 H       
  44 H44            8.5170     5.2326    -0.0457 H       
  45 H45            7.3874     4.7176     2.1008 H       
  46 H46            4.9365     4.3420     2.1204 H       
  47 H47            5.7725     3.0569     1.2160 H       
  48 H48            7.3434     7.0365     1.2236 H       
  49 H49            5.8539     6.6659     2.1248 H       
  50 H50            5.7505     3.0703    -1.2823 H       
  51 H51            4.8988     4.3650    -2.1578 H       
  52 H52            4.3201     8.4657     0.0087 H       
  53 H53            7.9228    11.2236    -0.0075 H       
  54 H54            7.3026    13.6308     0.0101 H       
  55 H55            4.8947    14.2399     0.0338 H       
  56 H56            3.1951    12.4566     0.0389 H       
@<TRIPOS>BOND
   1    1    2 ar
   2    1    6 ar
   3    1    8 1
   4    2    3 ar
   5    2    7 1
   6    3    4 ar
   7    3   32 1
   8    4    5 ar
   9    4   33 1
  10    5    6 ar
  11    5   10 1
  12    7    9 1
  13    7   34 1
  14    8    9 2
  15    8   35 1
  16    9   36 1
  17   10   11 2
  18   10   12 am
  19   12   13 1
  20   12   37 1
  21   13   14 1
  22   13   20 1
  23   13   22 1
  24   14   15 1
  25   14   38 1
  26   14   39 1
  27   15   16 1
  28   15   21 1
  29   15   23 1
  30   16   17 1
  31   16   40 1
  32   16   41 1
  33   17   18 1
  34   17   22 1
  35   17   42 1
  36   18   19 1
  37   18   43 1
  38   18   44 1
  39   19   20 1
  40   19   21 1
  41   19   45 1
  42   20   46 1
  43   20   47 1
  44   21   48 1
  45   21   49 1
  46   22   50 1
  47   22   51 1
  48   23   24 am
  49   23   52 1
  50   24   25 2
  51   24   26 1
  52   26   27 ar
  53   26   31 ar
  54   27   28 ar
  55   27   53 1
  56   28   29 ar
  57   28   54 1
  58   29   30 ar
  59   29   55 1
  60   30   31 ar
  61   30   56 1

#	End of record

