#	Name: ASD00100002
#	Creating user name:	WinNT
#	Creation time:	15. 06. 2019 18:30

#	Modifying user name:	WinNT
#	Modification time:	15. 06. 2019 18:30

#	Program:	/corina/corina34_cracker 3.40 0067  02.08.2006

@<TRIPOS>MOLECULE
ASD00100002
  55   58    0    0    0
SMALL
NO_CHARGES


@<TRIPOS>ATOM
   1 C1             0.4380     1.2784    -0.8327 C.ar    
   2 C2             0.5501    -0.1039    -0.8907 C.ar    
   3 C3             1.8250    -0.6402    -0.7148 C.ar    
   4 C4             2.8745     0.2581    -0.4936 C.ar    
   5 C5             2.7645     1.6532    -0.4450 C.ar    
   6 C6             1.5107     2.1432    -0.6164 C.ar    
   7 C7             4.1073    -0.5109    -0.3183 C.2     
   8 C8             5.3928     0.2306    -0.0354 C.3     
   9 C9             5.0084     1.5609     0.6206 C.3     
  10 C10            4.0436     2.3954    -0.2289 C.3     
  11 N11            2.3938    -1.8779    -0.6957 N.pl3   
  12 C12            3.7561    -1.7798    -0.4543 C.2     
  13 N13            6.1977     2.3675     0.9129 N.3     
  14 C14            5.8195     3.5889     1.6410 C.3     
  15 C15            4.8559     4.4276     0.8010 C.3     
  16 C16            3.8117     3.7104     0.4704 C.2     
  17 C17            4.3234     1.2537     1.9537 C.3     
  18 C18            7.1885     1.5897     1.6687 C.3     
  19 N19            4.4196     5.5948     1.5790 N.3     
  20 C20            5.5683     4.9021    -0.4672 C.3     
  21 O21            5.2609     6.2811     1.7093 O.2     
  22 C22            3.3340     6.2807     0.8656 C.3     
  23 C23            3.9388     5.1540     2.8952 C.3     
  24 C24            2.6579     4.3353     2.7224 C.3     
  25 C25            2.9520     7.5548     1.6218 C.3     
  26 H26           -0.5417     1.7122    -0.9680 H       
  27 H27           -0.3096    -0.7342    -1.0637 H       
  28 H28            1.3425     3.2096    -0.5853 H       
  29 H29            6.0164    -0.3518     0.6428 H       
  30 H30            5.9277     0.4163    -0.9668 H       
  31 H31            4.5053     2.5953    -1.1958 H       
  32 H32            1.9140    -2.7099    -0.8313 H       
  33 H33            4.4331    -2.6185    -0.3868 H       
  34 H34            5.3365     3.3153     2.5790 H       
  35 H35            6.7143     4.1733     1.8552 H       
  36 H36            2.8115     4.0516     0.6929 H       
  37 H37            5.0100     0.7028     2.5966 H       
  38 H38            4.0400     2.1870     2.4402 H       
  39 H39            3.4322     0.6523     1.7743 H       
  40 H40            7.4907     0.7206     1.0843 H       
  41 H41            8.0603     2.2116     1.8721 H       
  42 H42            6.7499     1.2597     2.6104 H       
  43 H43            5.8968     4.0378    -1.0444 H       
  44 H44            4.8824     5.5002    -1.0670 H       
  45 H45            6.4332     5.5064    -0.1935 H       
  46 H46            3.6669     6.5406    -0.1393 H       
  47 H47            2.4677     5.6222     0.8025 H       
  48 H48            4.7013     4.5391     3.3733 H       
  49 H49            3.7321     6.0251     3.5169 H       
  50 H50            2.8960     3.3846     2.2453 H       
  51 H51            2.2107     4.1499     3.6989 H       
  52 H52            1.9546     4.8882     2.0997 H       
  53 H53            2.6990     7.3038     2.6519 H       
  54 H54            3.7927     8.2485     1.6128 H       
  55 H55            2.0922     8.0196     1.1394 H       
@<TRIPOS>BOND
   1    1    2 ar
   2    1    6 ar
   3    1   26 1
   4    2    3 ar
   5    2   27 1
   6    3    4 ar
   7    3   11 1
   8    4    5 ar
   9    4    7 1
  10    5    6 ar
  11    5   10 1
  12    6   28 1
  13    7    8 1
  14    7   12 2
  15    8    9 1
  16    8   29 1
  17    8   30 1
  18    9   10 1
  19    9   13 1
  20    9   17 1
  21   10   16 1
  22   10   31 1
  23   11   12 1
  24   11   32 1
  25   12   33 1
  26   13   14 1
  27   13   18 1
  28   14   15 1
  29   14   34 1
  30   14   35 1
  31   15   16 2
  32   15   19 1
  33   15   20 1
  34   16   36 1
  35   17   37 1
  36   17   38 1
  37   17   39 1
  38   18   40 1
  39   18   41 1
  40   18   42 1
  41   19   21 2
  42   19   22 1
  43   19   23 1
  44   20   43 1
  45   20   44 1
  46   20   45 1
  47   22   25 1
  48   22   46 1
  49   22   47 1
  50   23   24 1
  51   23   48 1
  52   23   49 1
  53   24   50 1
  54   24   51 1
  55   24   52 1
  56   25   53 1
  57   25   54 1
  58   25   55 1

#	End of record

