#	Name: ASD01914413
#	Creating user name:	WinNT
#	Creation time:	15. 06. 2019 20:03

#	Modifying user name:	WinNT
#	Modification time:	15. 06. 2019 20:03

#	Program:	/corina/corina34_cracker 3.40 0067  02.08.2006

@<TRIPOS>MOLECULE
ASD01914413
  36   37    0    0    0
SMALL
NO_CHARGES


@<TRIPOS>ATOM
   1 C1             0.0479     1.6320     0.1712 C.ar    
   2 C2            -0.0064     0.2575     0.3156 C.ar    
   3 C3             1.2627     2.2623    -0.0246 C.ar    
   4 C4             2.4273     1.5209    -0.0772 C.ar    
   5 C5             2.3773     0.1409     0.0673 C.ar    
   6 C6             1.1543    -0.4902     0.2645 C.ar    
   7 N7             3.5535    -0.6119     0.0142 N.am    
   8 C8             4.3553    -0.8045     1.2251 C.3     
   9 S9             4.0409    -1.2864    -1.4176 S.o2    
  10 C10            5.2829     0.3694     1.4053 C.2     
  11 N11            6.0521     0.4573     2.5085 N.am    
  12 O12            5.3373     1.2350     0.5574 O.2     
  13 C13            6.8450     1.5922     2.7208 C.ar    
  14 C14            5.0875    -0.0175    -2.1826 C.3     
  15 O15            4.8213    -2.4084    -1.0287 O.2     
  16 O16            2.8374    -1.4512    -2.1550 O.2     
  17 Cl17           1.0858    -2.2153     0.4464 Cl      
  18 C18            6.4225     2.8411     2.2784 C.ar    
  19 C19            7.2419     3.9352     2.5117 C.ar    
  20 C20            8.4419     3.7523     3.1706 C.ar    
  21 N21            8.8163     2.5544     3.5788 N.ar    
  22 C22            8.0650     1.4878     3.3828 C.ar    
  23 F23            8.4891     0.2812     3.8182 F       
  24 H24           -0.8613     2.2138     0.2070 H       
  25 H25           -0.9570    -0.2318     0.4687 H       
  26 H26            1.3013     3.3357    -0.1370 H       
  27 H27            3.3756     2.0142    -0.2309 H       
  28 H28            3.6954    -0.8822     2.0892 H       
  29 H29            4.9406    -1.7192     1.1316 H       
  30 H30            6.0566    -0.2654     3.1555 H       
  31 H31            5.8440     0.3083    -1.4687 H       
  32 H32            5.5750    -0.4321    -3.0649 H       
  33 H33            4.4722     0.8339    -2.4737 H       
  34 H34            5.4792     2.9561     1.7652 H       
  35 H35            6.9451     4.9197     2.1815 H       
  36 H36            9.0832     4.6017     3.3540 H       
@<TRIPOS>BOND
   1    1    2 ar
   2    1    3 ar
   3    1   24 1
   4    2    6 ar
   5    2   25 1
   6    3    4 ar
   7    3   26 1
   8    4    5 ar
   9    4   27 1
  10    5    6 ar
  11    5    7 1
  12    6   17 1
  13    7    8 1
  14    7    9 am
  15    8   10 1
  16    8   28 1
  17    8   29 1
  18    9   14 1
  19    9   15 2
  20    9   16 2
  21   10   11 am
  22   10   12 2
  23   11   13 1
  24   11   30 1
  25   13   18 ar
  26   13   22 ar
  27   14   31 1
  28   14   32 1
  29   14   33 1
  30   18   19 ar
  31   18   34 1
  32   19   20 ar
  33   19   35 1
  34   20   21 ar
  35   20   36 1
  36   21   22 ar
  37   22   23 1

#	End of record

