#	Name: ASD01916709
#	Creating user name:	WinNT
#	Creation time:	15. 06. 2019 20:07

#	Modifying user name:	WinNT
#	Modification time:	15. 06. 2019 20:07

#	Program:	/corina/corina34_cracker 3.40 0067  02.08.2006

@<TRIPOS>MOLECULE
ASD01916709
  30   32    0    0    0
SMALL
NO_CHARGES


@<TRIPOS>ATOM
   1 C1            -0.0170     1.4002     0.0097 C.ar    
   2 C2             0.0021    -0.0041     0.0020 C.ar    
   3 C3             1.2208    -0.6670    -0.0132 C.ar    
   4 C4             2.3797     0.0918    -0.0201 C.ar    
   5 C5             2.2897     1.4740    -0.0119 C.ar    
   6 N6             1.1232     2.0834     0.0025 N.ar    
   7 O7            -1.2873    -0.4032     0.0122 O.3     
   8 C8            -2.0621     0.6921     0.0254 C.2     
   9 N9            -1.3270     1.7642     0.0297 N.2     
  10 C10           -3.5690     0.6810     0.0393 C.3     
  11 C11           -4.0922     0.6853    -1.3985 C.3     
  12 C12           -5.5641     0.6745    -1.3849 C.1     
  13 C13           -6.7380     0.6659    -1.3742 C.1     
  14 C14           -8.1699     0.6554    -1.3610 C.ar    
  15 C15           -8.8734     0.6571    -2.5661 C.ar    
  16 C16          -10.2566     0.6468    -2.5367 C.ar    
  17 C17          -10.8933     0.6352    -1.3032 C.ar    
  18 C18          -10.1344     0.6341    -0.1475 C.ar    
  19 N19           -8.8181     0.6386    -0.2021 N.ar    
  20 H20            1.2648    -1.7461    -0.0190 H       
  21 H21            3.3459    -0.3906    -0.0316 H       
  22 H22            3.1947     2.0634    -0.0173 H       
  23 H23           -3.9210    -0.2145     0.5514 H       
  24 H24           -3.9340     1.5654     0.5615 H       
  25 H25           -3.7402     1.5808    -1.9106 H       
  26 H26           -3.7272    -0.1991    -1.9206 H       
  27 H27           -8.3457     0.6666    -3.5084 H       
  28 H28          -10.8282     0.6482    -3.4530 H       
  29 H29          -11.9718     0.6273    -1.2469 H       
  30 H30          -10.6275     0.6255     0.8134 H       
@<TRIPOS>BOND
   1    1    2 ar
   2    1    6 ar
   3    1    9 1
   4    2    3 ar
   5    2    7 1
   6    3    4 ar
   7    3   20 1
   8    4    5 ar
   9    4   21 1
  10    5    6 ar
  11    5   22 1
  12    7    8 1
  13    8    9 2
  14    8   10 1
  15   10   11 1
  16   10   23 1
  17   10   24 1
  18   11   12 1
  19   11   25 1
  20   11   26 1
  21   12   13 3
  22   13   14 1
  23   14   15 ar
  24   14   19 ar
  25   15   16 ar
  26   15   27 1
  27   16   17 ar
  28   16   28 1
  29   17   18 ar
  30   17   29 1
  31   18   19 ar
  32   18   30 1

#	End of record

