#	Name: ASD01150950
#	Creating user name:	WinNT
#	Creation time:	15. 06. 2019 19:05

#	Modifying user name:	WinNT
#	Modification time:	15. 06. 2019 19:05

#	Program:	/corina/corina34_cracker 3.40 0067  02.08.2006

@<TRIPOS>MOLECULE
ASD01150950
  28   27    0    0    0
SMALL
NO_CHARGES


@<TRIPOS>ATOM
   1 C1            -0.0991     0.8203     0.2291 C.2     
   2 O2            -0.2956    -0.3666     0.3410 O.2     
   3 O3             1.1511     1.2813     0.0666 O.3     
   4 C4            -1.2581     1.7827     0.2658 C.3     
   5 C5            -2.5618     1.0040     0.4527 C.3     
   6 C6            -2.5574     0.3234     1.8230 C.3     
   7 N7            -3.7602    -0.5087     1.9603 N.3     
   8 C8            -3.7479     1.9667     0.3653 C.3     
   9 C9            -3.8343     2.5423    -1.0496 C.3     
  10 C10           -4.1521     1.4191    -2.0387 C.3     
  11 C11           -4.9404     3.5980    -1.1041 C.3     
  12 H12            1.8615     0.6255     0.0454 H       
  13 H13           -1.1276     2.4773     1.0957 H       
  14 H14           -1.2983     2.3390    -0.6707 H       
  15 H15           -2.6489     0.2484    -0.3280 H       
  16 H16           -1.6700    -0.3029     1.9147 H       
  17 H17           -2.5491     1.0821     2.6055 H       
  18 H18           -3.8336    -1.1667     1.1990 H       
  19 H19           -3.7720    -0.9831     2.8507 H       
  20 H20           -4.6685     1.4308     0.5964 H       
  21 H21           -3.6106     2.7782     1.0799 H       
  22 H22           -2.8813     3.0006    -1.3143 H       
  23 H23           -3.3989     0.6359    -1.9533 H       
  24 H24           -5.1347     1.0043    -1.8139 H       
  25 H25           -4.1492     1.8169    -3.0535 H       
  26 H26           -4.7139     4.3982    -0.3995 H       
  27 H27           -5.0019     4.0081    -2.1121 H       
  28 H28           -5.8933     3.1398    -0.8395 H       
@<TRIPOS>BOND
   1    1    2 2
   2    1    3 1
   3    1    4 1
   4    3   12 1
   5    4    5 1
   6    4   13 1
   7    4   14 1
   8    5    6 1
   9    5    8 1
  10    5   15 1
  11    6    7 1
  12    6   16 1
  13    6   17 1
  14    7   18 1
  15    7   19 1
  16    8    9 1
  17    8   20 1
  18    8   21 1
  19    9   10 1
  20    9   11 1
  21    9   22 1
  22   10   23 1
  23   10   24 1
  24   10   25 1
  25   11   26 1
  26   11   27 1
  27   11   28 1

#	End of record

