#	Name: ASD03331595
#	Creating user name:	WinNT
#	Creation time:	15. 06. 2019 20:39

#	Modifying user name:	WinNT
#	Modification time:	15. 06. 2019 20:39

#	Program:	/corina/corina34_cracker 3.40 0067  02.08.2006

@<TRIPOS>MOLECULE
ASD03331595
  47   50    0    0    0
SMALL
NO_CHARGES


@<TRIPOS>ATOM
   1 C1            -0.0180     1.4748     0.0102 C.ar    
   2 C2             0.0021    -0.0041     0.0020 C.2     
   3 N3            -1.0236    -0.8156     0.3861 N.pl3   
   4 C4            -0.5936    -2.1041     0.2495 C.2     
   5 C5             0.6730    -2.0540    -0.2397 C.2     
   6 N6             1.0095    -0.7551    -0.3820 N.2     
   7 C7             1.5276    -3.2149    -0.5630 C.2     
   8 N8             1.2046    -4.4809    -0.4315 N.2     
   9 C9            -2.3532    -0.3985     0.8418 C.3     
  10 C10           -2.9302    -1.4763     1.7638 C.3     
  11 C11           -3.6298    -2.5488     0.9319 C.3     
  12 O12           -2.7103    -3.2014     0.0646 O.3     
  13 C13           -1.3903    -3.3323     0.6038 C.3     
  14 C14            1.1793     2.1910    -0.0033 C.ar    
  15 C15            1.1546     3.5721     0.0039 C.ar    
  16 C16           -0.0585     4.2457     0.0249 C.ar    
  17 C17           -1.2490     3.5374     0.0388 C.ar    
  18 C18           -1.2346     2.1583     0.0255 C.ar    
  19 F19           -0.0785     5.5965     0.0324 F       
  20 F20            2.3127     4.2677    -0.0092 F       
  21 O21            2.7827    -3.1723    -1.0535 O.3     
  22 C22            3.1769    -4.4506    -1.1959 C.2     
  23 N23            2.1934    -5.2125    -0.8088 N.2     
  24 C24            4.5131    -4.9171    -1.7135 C.3     
  25 C25            4.3050    -5.7713    -2.9656 C.3     
  26 C26            5.3771    -3.7034    -2.0620 C.3     
  27 C27            5.2139    -5.7501    -0.6384 C.3     
  28 H28           -2.2729     0.5421     1.3867 H       
  29 H29           -3.0085    -0.2668    -0.0192 H       
  30 H30           -2.1234    -1.9320     2.3378 H       
  31 H31           -3.6480    -1.0223     2.4470 H       
  32 H32           -4.0763    -3.2854     1.5999 H       
  33 H33           -4.4155    -2.0840     0.3363 H       
  34 H34           -0.9090    -4.2141     0.1807 H       
  35 H35           -1.4470    -3.4304     1.6879 H       
  36 H36            2.1234     1.6667    -0.0190 H       
  37 H37           -2.1905     4.0663     0.0559 H       
  38 H38           -2.1638     1.6078     0.0360 H       
  39 H39            3.8058    -5.1778    -3.7315 H       
  40 H40            5.2715    -6.1088    -3.3400 H       
  41 H41            3.6895    -6.6360    -2.7174 H       
  42 H42            5.5254    -3.0948    -1.1699 H       
  43 H43            6.3436    -4.0408    -2.4364 H       
  44 H44            4.8778    -3.1099    -2.8279 H       
  45 H45            4.5985    -6.6148    -0.3902 H       
  46 H46            6.1804    -6.0876    -1.0128 H       
  47 H47            5.3622    -5.1416     0.2536 H       
@<TRIPOS>BOND
   1    1    2 1
   2    1   14 ar
   3    1   18 ar
   4    2    3 1
   5    2    6 2
   6    3    4 1
   7    3    9 1
   8    4    5 2
   9    4   13 1
  10    5    6 1
  11    5    7 1
  12    7    8 2
  13    7   21 1
  14    8   23 1
  15    9   10 1
  16    9   28 1
  17    9   29 1
  18   10   11 1
  19   10   30 1
  20   10   31 1
  21   11   12 1
  22   11   32 1
  23   11   33 1
  24   12   13 1
  25   13   34 1
  26   13   35 1
  27   14   15 ar
  28   14   36 1
  29   15   16 ar
  30   15   20 1
  31   16   17 ar
  32   16   19 1
  33   17   18 ar
  34   17   37 1
  35   18   38 1
  36   21   22 1
  37   22   23 2
  38   22   24 1
  39   24   25 1
  40   24   26 1
  41   24   27 1
  42   25   39 1
  43   25   40 1
  44   25   41 1
  45   26   42 1
  46   26   43 1
  47   26   44 1
  48   27   45 1
  49   27   46 1
  50   27   47 1

#	End of record

