#	Name: ASD03240795
#	Creating user name:	WinNT
#	Creation time:	15. 06. 2019 20:35

#	Modifying user name:	WinNT
#	Modification time:	15. 06. 2019 20:35

#	Program:	/corina/corina34_cracker 3.40 0067  02.08.2006

@<TRIPOS>MOLECULE
ASD03240795
  78   84    0    0    0
SMALL
NO_CHARGES


@<TRIPOS>ATOM
   1 N1             0.1447     1.8837     0.0347 N.3     
   2 C2            -0.0709     0.4360     0.1538 C.3     
   3 C3             0.6011    -0.0780     1.4290 C.3     
   4 C4             2.0997     0.2306     1.3703 C.3     
   5 C5             2.2958     1.7394     1.1977 C.3     
   6 C6             1.5746     2.2007    -0.0708 C.3     
   7 C7             2.7570    -0.2195     2.6495 C.2     
   8 O8             2.0933    -0.7365     3.5231 O.2     
   9 N9             4.0825    -0.0476     2.8228 N.am    
  10 C10            4.6764    -0.3752     4.0466 C.ar    
  11 C11            4.2156    -1.4644     4.7731 C.ar    
  12 C12            4.8067    -1.7860     5.9846 C.ar    
  13 C13            5.8573    -1.0188     6.4687 C.ar    
  14 C14            6.3147     0.0651     5.7441 C.ar    
  15 C15            5.7314     0.3858     4.5333 C.ar    
  16 O16            4.3576    -2.8516     6.6986 O.3     
  17 C17            5.0135    -3.1247     7.9384 C.3     
  18 F18            4.8828    -2.0210     8.7881 F       
  19 F19            4.4299    -4.2461     8.5376 F       
  20 F20            6.3698    -3.3744     7.7034 F       
  21 C21           -0.6023     2.4354    -1.1035 C.3     
  22 C22           -0.5584     3.9408    -1.0510 C.ar    
  23 C23            0.4634     4.6228    -1.6873 C.ar    
  24 C24            0.5088     6.0012    -1.6432 C.ar    
  25 C25           -0.4783     6.7070    -0.9553 C.ar    
  26 C26           -1.5059     6.0136    -0.3157 C.ar    
  27 C27           -1.5432     4.6354    -0.3715 C.ar    
  28 C28            2.1137    12.1213    -0.6956 C.2     
  29 N29            1.0073    12.8857    -0.7013 N.2     
  30 C30           -0.1931    12.3685    -0.7534 C.2     
  31 C31           -0.3384    10.9154    -0.8079 C.ar    
  32 C32            0.8266    10.1187    -0.8012 C.ar    
  33 N33            2.0517    10.7550    -0.7439 N.pl3   
  34 C34           -1.5948    10.3034    -0.8653 C.ar    
  35 C35           -1.6409     8.9138    -0.9139 C.ar    
  36 C36           -0.4352     8.1863    -0.9036 C.ar    
  37 N37            0.7370     8.8012    -0.8491 N.ar    
  38 N38            3.3631    10.2649    -0.7224 N.2     
  39 C39            4.1924    11.2791    -0.6638 C.2     
  40 C40            3.4592    12.4588    -0.6397 C.2     
  41 C41           -2.9431     8.2077    -0.9753 C.ar    
  42 C42           -3.9539     8.5240    -0.0691 C.ar    
  43 C43           -5.1642     7.8638    -0.1313 C.ar    
  44 C44           -5.3750     6.8894    -1.0903 C.ar    
  45 C45           -4.3755     6.5710    -1.9920 C.ar    
  46 C46           -3.1633     7.2290    -1.9433 C.ar    
  47 C47            5.6956    11.1806    -0.6234 C.3     
  48 H48           -1.1404     0.2306     0.1987 H       
  49 H49            0.3594    -0.0676    -0.7119 H       
  50 H50            0.1617     0.4152     2.2961 H       
  51 H51            0.4542    -1.1551     1.5090 H       
  52 H52            2.5468    -0.2938     0.5258 H       
  53 H53            1.8830     2.2611     2.0611 H       
  54 H54            3.3596     1.9607     1.1124 H       
  55 H55            1.9972     1.6888    -0.9354 H       
  56 H56            1.7003     3.2770    -0.1890 H       
  57 H57            4.6248     0.3032     2.0991 H       
  58 H58            3.3978    -2.0600     4.3951 H       
  59 H59            6.3177    -1.2693     7.4130 H       
  60 H60            7.1320     0.6606     6.1231 H       
  61 H61            6.0937     1.2308     3.9668 H       
  62 H62           -0.1522     2.0910    -2.0347 H       
  63 H63           -1.6383     2.1002    -1.0550 H       
  64 H64            1.2272     4.0752    -2.2193 H       
  65 H65            1.3071     6.5324    -2.1400 H       
  66 H66           -2.2727     6.5545     0.2188 H       
  67 H67           -2.3406     4.0976     0.1198 H       
  68 H68           -1.0645    13.0065    -0.7564 H       
  69 H69           -2.5008    10.8912    -0.8710 H       
  70 H70            3.8634    13.4590    -0.5885 H       
  71 H71           -3.7901     9.2840     0.6806 H       
  72 H72           -5.9481     8.1080     0.5703 H       
  73 H73           -6.3236     6.3751    -1.1351 H       
  74 H74           -4.5456     5.8092    -2.7384 H       
  75 H75           -2.3852     6.9828    -2.6506 H       
  76 H76            6.0880    11.1922    -1.6403 H       
  77 H77            6.1004    12.0267    -0.0681 H       
  78 H78            5.9859    10.2516    -0.1326 H       
@<TRIPOS>BOND
   1    1    2 1
   2    1    6 1
   3    1   21 1
   4    2    3 1
   5    2   48 1
   6    2   49 1
   7    3    4 1
   8    3   50 1
   9    3   51 1
  10    4    5 1
  11    4    7 1
  12    4   52 1
  13    5    6 1
  14    5   53 1
  15    5   54 1
  16    6   55 1
  17    6   56 1
  18    7    8 2
  19    7    9 am
  20    9   10 1
  21    9   57 1
  22   10   11 ar
  23   10   15 ar
  24   11   12 ar
  25   11   58 1
  26   12   13 ar
  27   12   16 1
  28   13   14 ar
  29   13   59 1
  30   14   15 ar
  31   14   60 1
  32   15   61 1
  33   16   17 1
  34   17   18 1
  35   17   19 1
  36   17   20 1
  37   21   22 1
  38   21   62 1
  39   21   63 1
  40   22   23 ar
  41   22   27 ar
  42   23   24 ar
  43   23   64 1
  44   24   25 ar
  45   24   65 1
  46   25   26 ar
  47   25   36 1
  48   26   27 ar
  49   26   66 1
  50   27   67 1
  51   28   29 1
  52   28   33 1
  53   28   40 2
  54   29   30 2
  55   30   31 1
  56   30   68 1
  57   31   32 ar
  58   31   34 ar
  59   32   33 1
  60   32   37 ar
  61   33   38 1
  62   34   35 ar
  63   34   69 1
  64   35   36 ar
  65   35   41 1
  66   36   37 ar
  67   38   39 2
  68   39   40 1
  69   39   47 1
  70   40   70 1
  71   41   42 ar
  72   41   46 ar
  73   42   43 ar
  74   42   71 1
  75   43   44 ar
  76   43   72 1
  77   44   45 ar
  78   44   73 1
  79   45   46 ar
  80   45   74 1
  81   46   75 1
  82   47   76 1
  83   47   77 1
  84   47   78 1

#	End of record

