#	Name: ASD01890019
#	Creating user name:	WinNT
#	Creation time:	15. 06. 2019 19:50

#	Modifying user name:	WinNT
#	Modification time:	15. 06. 2019 19:50

#	Program:	/corina/corina34_cracker 3.40 0067  02.08.2006

@<TRIPOS>MOLECULE
ASD01890019
 113  115    0    0    0
SMALL
NO_CHARGES


@<TRIPOS>ATOM
   1 C1             2.1102     0.3340     2.9321 C.3     
   2 C2             1.7424    -1.0553     2.4788 C.2     
   3 N3             1.4886    -2.0161     3.3892 N.am    
   4 C4             1.1311    -3.3667     2.9486 C.3     
   5 C5             1.4903    -4.3580     4.0253 C.2     
   6 N6             1.2505    -5.6712     3.8396 N.am    
   7 C7             3.5888     0.3680     3.3239 C.3     
   8 N8             1.8715     1.2852     1.8383 N.3     
   9 C9             3.9320     1.7428     3.9009 C.3     
  10 C10            5.4106     1.7768     4.2927 C.3     
  11 N11            5.7401     3.0968     4.8468 N.3     
  12 O12            1.6749    -1.3089     1.2947 O.2     
  13 C13           -0.3730    -3.4328     2.6757 C.3     
  14 C14           -0.7133    -2.5321     1.5165 C.ar    
  15 C15           -0.6914    -3.0294     0.2265 C.ar    
  16 C16           -1.0030    -2.2057    -0.8379 C.ar    
  17 C17           -1.3379    -0.8786    -0.6116 C.ar    
  18 C18           -1.3591    -0.3821     0.6836 C.ar    
  19 C19           -1.0522    -1.2113     1.7451 C.ar    
  20 O20           -1.6444    -0.0662    -1.6571 O.3     
  21 O21            1.9952    -3.9741     5.0590 O.2     
  22 C22            1.5997    -6.6348     4.8863 C.3     
  23 C23            0.4751    -6.7185     5.8872 C.2     
  24 N24           -0.4910    -7.6367     5.7393 N.am    
  25 C25           -0.4781    -8.7868     4.8196 C.3     
  26 C26            0.5165    -8.5507     3.6920 C.3     
  27 C27            1.8293    -8.0092     4.2570 C.3     
  28 C28           -1.7926    -7.6698     6.4246 C.3     
  29 C29           -2.7688    -8.4190     5.4956 C.3     
  30 C30           -1.9206    -8.8275     4.2670 C.3     
  31 O31            0.4443    -5.9540     6.8282 O.2     
  32 C32           -2.2845    -6.2655     6.6636 C.2     
  33 O33           -1.6185    -5.3195     6.2997 O.2     
  34 N34           -3.4646    -6.0609     7.2816 N.am    
  35 C35           -3.9429    -4.6958     7.5139 C.3     
  36 C36           -3.3369    -4.1569     8.8113 C.3     
  37 C37           -5.4457    -4.7022     7.6261 C.2     
  38 C38           -1.8201    -4.0330     8.6528 C.3     
  39 N39           -6.1103    -3.5497     7.8418 N.am    
  40 O40           -6.0570    -5.7445     7.5223 O.2     
  41 C41           -7.5752    -3.5377     7.8410 C.3     
  42 C42           -8.0689    -2.4108     8.7112 C.2     
  43 C43           -8.0827    -3.3382     6.4114 C.3     
  44 O44           -7.2752    -1.6767     9.2609 O.2     
  45 N45           -9.3923    -2.2186     8.8785 N.am    
  46 C46           -7.4616    -2.0703     5.8220 C.3     
  47 C47           -7.7859    -1.9900     4.3290 C.3     
  48 C48           -8.0336    -0.8432     6.5348 C.3     
  49 C49           -9.8722    -1.1230     9.7245 C.3     
  50 C50          -11.2606    -0.7263     9.2931 C.2     
  51 C51           -9.9031    -1.5814    11.1839 C.3     
  52 O52          -11.7964    -1.3020     8.3699 O.2     
  53 N53          -11.9068     0.2683     9.9332 N.am    
  54 C54           -1.2232    -3.5023     9.9307 C.2     
  55 O55           -1.9376    -3.2491    10.8717 O.2     
  56 O56            0.1021    -3.3108    10.0236 O.3     
  57 H57            1.4999     0.6090     3.7924 H       
  58 H58            1.5426    -1.8133     4.3362 H       
  59 H59            1.6767    -3.6076     2.0362 H       
  60 H60            0.8466    -5.9783     3.0128 H       
  61 H61            3.7839    -0.3994     4.0729 H       
  62 H62            4.2025     0.1802     2.4429 H       
  63 H63            2.0492     2.2323     2.1375 H       
  64 H64            2.4262     1.0517     1.0285 H       
  65 H65            3.7369     2.5103     3.1519 H       
  66 H66            3.3183     1.9306     4.7819 H       
  67 H67            5.6057     1.0094     5.0418 H       
  68 H68            6.0243     1.5890     3.4117 H       
  69 H69            6.7121     3.1447     5.1134 H       
  70 H70            5.5075     3.8309     4.1948 H       
  71 H71           -0.6537    -4.4579     2.4340 H       
  72 H72           -0.9176    -3.1063     3.5616 H       
  73 H73           -0.4303    -4.0625     0.0509 H       
  74 H74           -0.9855    -2.5945    -1.8453 H       
  75 H75           -1.6195     0.6507     0.8623 H       
  76 H76           -1.0686    -0.8252     2.7536 H       
  77 H77           -2.5837    -0.0582    -1.8868 H       
  78 H78            2.5102    -6.3098     5.3898 H       
  79 H79           -0.2342    -9.7032     5.3571 H       
  80 H80            0.7062    -9.4910     3.1744 H       
  81 H81            0.1007    -7.8298     2.9881 H       
  82 H82            2.5602    -7.9213     3.4532 H       
  83 H83            2.2077    -8.6956     5.0146 H       
  84 H84           -1.7008    -8.1990     7.3731 H       
  85 H85           -3.1627    -9.3042     5.9950 H       
  86 H86           -3.5828    -7.7609     5.1918 H       
  87 H87           -2.0441    -8.1094     3.4564 H       
  88 H88           -2.1793    -9.8334     3.9363 H       
  89 H89           -3.9974    -6.8175     7.5726 H       
  90 H90           -3.6434    -4.0593     6.6812 H       
  91 H91           -3.7605    -3.1769     9.0306 H       
  92 H92           -3.5620    -4.8414     9.6292 H       
  93 H93           -1.3965    -5.0131     8.4335 H       
  94 H94           -1.5950    -3.3486     7.8349 H       
  95 H95           -5.6186    -2.7282     7.9977 H       
  96 H96           -7.9466    -4.4861     8.2293 H       
  97 H97           -7.8013    -4.1975     5.8027 H       
  98 H98           -9.1683    -3.2401     6.4217 H       
  99 H99          -10.0271    -2.8056     8.4388 H       
 100 H100          -6.3805    -2.0983     5.9580 H       
 101 H101          -8.8670    -1.9620     4.1930 H       
 102 H102          -7.3434    -1.0867     3.9091 H       
 103 H103          -7.3783    -2.8642     3.8211 H       
 104 H104          -9.1145    -0.9485     6.6285 H       
 105 H105          -7.5895    -0.7593     7.5267 H       
 106 H106          -7.8045     0.0522     5.9572 H       
 107 H107          -9.2031    -0.2682     9.6262 H       
 108 H108          -8.8989    -1.8683    11.4959 H       
 109 H109         -10.2601    -0.7663    11.8133 H       
 110 H110         -10.5722    -2.4362    11.2821 H       
 111 H111         -11.4782     0.7287    10.6716 H       
 112 H112         -12.8004     0.5236     9.6555 H       
 113 H113           0.4384    -2.9687    10.8632 H       
@<TRIPOS>BOND
   1    1    2 1
   2    1    7 1
   3    1    8 1
   4    1   57 1
   5    2    3 am
   6    2   12 2
   7    3    4 1
   8    3   58 1
   9    4    5 1
  10    4   13 1
  11    4   59 1
  12    5    6 am
  13    5   21 2
  14    6   22 1
  15    6   60 1
  16    7    9 1
  17    7   61 1
  18    7   62 1
  19    8   63 1
  20    8   64 1
  21    9   10 1
  22    9   65 1
  23    9   66 1
  24   10   11 1
  25   10   67 1
  26   10   68 1
  27   11   69 1
  28   11   70 1
  29   13   14 1
  30   13   71 1
  31   13   72 1
  32   14   15 ar
  33   14   19 ar
  34   15   16 ar
  35   15   73 1
  36   16   17 ar
  37   16   74 1
  38   17   18 ar
  39   17   20 1
  40   18   19 ar
  41   18   75 1
  42   19   76 1
  43   20   77 1
  44   22   23 1
  45   22   27 1
  46   22   78 1
  47   23   24 am
  48   23   31 2
  49   24   25 1
  50   24   28 1
  51   25   26 1
  52   25   30 1
  53   25   79 1
  54   26   27 1
  55   26   80 1
  56   26   81 1
  57   27   82 1
  58   27   83 1
  59   28   29 1
  60   28   32 1
  61   28   84 1
  62   29   30 1
  63   29   85 1
  64   29   86 1
  65   30   87 1
  66   30   88 1
  67   32   33 2
  68   32   34 am
  69   34   35 1
  70   34   89 1
  71   35   36 1
  72   35   37 1
  73   35   90 1
  74   36   38 1
  75   36   91 1
  76   36   92 1
  77   37   39 am
  78   37   40 2
  79   38   54 1
  80   38   93 1
  81   38   94 1
  82   39   41 1
  83   39   95 1
  84   41   42 1
  85   41   43 1
  86   41   96 1
  87   42   44 2
  88   42   45 am
  89   43   46 1
  90   43   97 1
  91   43   98 1
  92   45   49 1
  93   45   99 1
  94   46   47 1
  95   46   48 1
  96   46  100 1
  97   47  101 1
  98   47  102 1
  99   47  103 1
 100   48  104 1
 101   48  105 1
 102   48  106 1
 103   49   50 1
 104   49   51 1
 105   49  107 1
 106   50   52 2
 107   50   53 am
 108   51  108 1
 109   51  109 1
 110   51  110 1
 111   53  111 1
 112   53  112 1
 113   54   55 2
 114   54   56 1
 115   56  113 1

#	End of record

