#	Name: ASD03092989
#	Creating user name:	WinNT
#	Creation time:	15. 06. 2019 20:33

#	Modifying user name:	WinNT
#	Modification time:	15. 06. 2019 20:33

#	Program:	/corina/corina34_cracker 3.40 0067  02.08.2006

@<TRIPOS>MOLECULE
ASD03092989
  42   45    0    0    0
SMALL
NO_CHARGES


@<TRIPOS>ATOM
   1 N1            -0.0204     1.6518     0.0111 N.am    
   2 S2             0.0021    -0.0041     0.0020 S.o2    
   3 O3            -0.5249    -0.4194     1.2546 O.2     
   4 O4            -0.5488    -0.4060    -1.2447 O.2     
   5 C5             1.6920    -0.5027    -0.0168 C.ar    
   6 C6             2.3450    -0.6864    -1.2212 C.ar    
   7 C7             3.6708    -1.0775    -1.2360 C.ar    
   8 C8             4.3436    -1.2846    -0.0463 C.ar    
   9 C9             3.6908    -1.1000     1.1581 C.ar    
  10 C10            2.3663    -0.7047     1.1729 C.ar    
  11 C11            5.7886    -1.7120    -0.0624 C.3     
  12 H12            6.1115    -2.2443    -0.9571 H       
  13 C13            6.4188    -2.1226     1.2699 C.3     
  14 C14            6.8049    -0.7926     0.6179 C.3     
  15 H15            6.4283     0.1214     1.0771 H       
  16 C16            8.1758    -0.6928     0.0000 C.ar    
  17 N17            8.9077    -1.7831    -0.1136 N.ar    
  18 C18           10.1178    -1.7408    -0.6503 C.ar    
  19 C19           10.6158    -0.5301    -1.0969 C.ar    
  20 C20            9.8140     0.6065    -0.9614 C.ar    
  21 N21            8.6060     0.4802    -0.4157 N.ar    
  22 C22           10.2982     1.9302    -1.4227 C.ar    
  23 C23            9.5390     3.0743    -1.1845 C.ar    
  24 C24            9.9937     4.3045    -1.6152 C.ar    
  25 C25           11.2006     4.4042    -2.2823 C.ar    
  26 C26           11.9606     3.2706    -2.5226 C.ar    
  27 F27           13.1391     3.3742    -3.1749 F       
  28 C28           11.5169     2.0349    -2.0908 C.ar    
  29 H29            0.8130     2.1481     0.0058 H       
  30 H30           -0.8669     2.1253     0.0177 H       
  31 H31            1.8193    -0.5246    -2.1507 H       
  32 H32            4.1808    -1.2217    -2.1770 H       
  33 H33            4.2164    -1.2621     2.0876 H       
  34 H34            1.8573    -0.5568     2.1139 H       
  35 H35            5.7882    -2.0836     2.1581 H       
  36 H36            7.1565    -2.9248     1.2518 H       
  37 H37           10.7086    -2.6406    -0.7379 H       
  38 H38           11.5992    -0.4647    -1.5385 H       
  39 H39            8.5958     2.9986    -0.6639 H       
  40 H40            9.4051     5.1911    -1.4309 H       
  41 H41           11.5521     5.3687    -2.6177 H       
  42 H42           12.1111     1.1520    -2.2743 H       
@<TRIPOS>BOND
   1    1    2 am
   2    1   29 1
   3    1   30 1
   4    2    3 2
   5    2    4 2
   6    2    5 1
   7    5   10 ar
   8    5    6 ar
   9    6    7 ar
  10    6   31 1
  11    7    8 ar
  12    7   32 1
  13    8    9 ar
  14    8   11 1
  15    9   10 ar
  16    9   33 1
  17   10   34 1
  18   11   12 1
  19   11   14 1
  20   11   13 1
  21   13   14 1
  22   13   35 1
  23   13   36 1
  24   14   15 1
  25   14   16 1
  26   16   21 ar
  27   16   17 ar
  28   17   18 ar
  29   18   19 ar
  30   18   37 1
  31   19   20 ar
  32   19   38 1
  33   20   21 ar
  34   20   22 1
  35   22   28 ar
  36   22   23 ar
  37   23   24 ar
  38   23   39 1
  39   24   25 ar
  40   24   40 1
  41   25   26 ar
  42   25   41 1
  43   26   27 1
  44   26   28 ar
  45   28   42 1

#	End of record

