#	Name: ASD08178078
#	Creating user name:	WinNT
#	Creation time:	15. 06. 2019 21:18

#	Modifying user name:	WinNT
#	Modification time:	15. 06. 2019 21:18

#	Program:	/corina/corina34_cracker 3.40 0067  02.08.2006

@<TRIPOS>MOLECULE
ASD08178078
  65   68    0    0    0
SMALL
NO_CHARGES


@<TRIPOS>ATOM
   1 N1            -0.0150     1.2583     0.0090 N.2     
   2 N2             0.0021    -0.0041     0.0020 N.2     
   3 C3             1.1271     1.8769     0.0014 C.2     
   4 S4             2.3826     0.7116    -0.0169 S.3     
   5 C5             1.1681    -0.5677    -0.0121 C.2     
   6 N6             1.3017     3.2566     0.0067 N.am    
   7 C7             0.2284     4.0717     0.0214 C.2     
   8 O8            -0.8897     3.6019     0.0299 O.2     
   9 C9             1.4387    -2.0502    -0.0227 C.3     
  10 C10            2.1699    -6.2152    -3.4347 C.3     
  11 C11            2.2167    -6.5408    -4.9053 C.2     
  12 N12            3.2694    -6.5184    -5.6596 N.2     
  13 S13            0.8491    -7.0282    -5.9071 S.3     
  14 C14            1.9000    -7.1354    -7.2557 C.2     
  15 N15            3.1017    -6.8250    -6.8728 N.2     
  16 N16            1.5289    -7.4992    -8.5457 N.am    
  17 C17            2.4537    -7.5464    -9.5250 C.2     
  18 O18            3.6096    -7.2716    -9.2812 O.2     
  19 C19            2.0516    -7.9407   -10.9228 C.3     
  20 C20            0.4176     5.5667     0.0272 C.3     
  21 C21           -0.9494     6.2538     0.0441 C.3     
  22 C22            3.2807    -7.9145   -11.8336 C.3     
  23 C23            1.5165    -2.5442    -1.4687 C.3     
  24 S24            1.8422    -4.3286    -1.4814 S.3     
  25 C25            1.8986    -4.7206    -3.2516 C.3     
  26 C26           -0.7601     7.7488     0.0498 C.ar    
  27 C27           -0.6851     8.4406    -1.1446 C.ar    
  28 C28           -0.5115     9.8120    -1.1393 C.ar    
  29 C29           -0.4134    10.4917     0.0604 C.ar    
  30 C30           -0.4893     9.8000     1.2549 C.ar    
  31 C31           -0.6673     8.4291     1.2496 C.ar    
  32 C32            2.8786    -8.3088   -13.2314 C.ar    
  33 C33            2.4763    -7.3417   -14.1336 C.ar    
  34 C34            2.9174    -9.6368   -13.6132 C.ar    
  35 C35            2.5485    -9.9984   -14.8954 C.ar    
  36 C36            2.1404    -9.0321   -15.7957 C.ar    
  37 C37            2.1074    -7.7034   -15.4158 C.ar    
  38 H38            2.1959     3.6323    -0.0001 H       
  39 H39            2.3843    -2.2506     0.4811 H       
  40 H40            0.6334    -2.5702     0.4961 H       
  41 H41            1.3741    -6.7896    -2.9605 H       
  42 H42            3.1250    -6.4700    -2.9755 H       
  43 H43            0.6045    -7.7190    -8.7407 H       
  44 H44            1.6303    -8.9459   -10.9098 H       
  45 H45            1.3064    -7.2392   -11.2980 H       
  46 H46            0.9817     5.8582     0.9132 H       
  47 H47            0.9643     5.8672    -0.8667 H       
  48 H48           -1.5134     5.9623    -0.8419 H       
  49 H49           -1.4960     5.9533     0.9379 H       
  50 H50            3.7020    -6.9093   -11.8466 H       
  51 H51            4.0259    -8.6160   -11.4584 H       
  52 H52            0.5709    -2.3438    -1.9724 H       
  53 H53            2.3218    -2.0242    -1.9874 H       
  54 H54            2.6943    -4.1461    -3.7258 H       
  55 H55            0.9434    -4.4658    -3.7108 H       
  56 H56           -0.7617     7.9096    -2.0819 H       
  57 H57           -0.4521    10.3524    -2.0725 H       
  58 H58           -0.2770    11.5630     0.0646 H       
  59 H59           -0.4123    10.3309     2.1922 H       
  60 H60           -0.7266     7.8887     2.1828 H       
  61 H61            2.4499    -6.3037   -13.8366 H       
  62 H62            3.2362   -10.3918   -12.9098 H       
  63 H63            2.5795   -11.0359   -15.1939 H       
  64 H64            1.8525    -9.3146   -16.7975 H       
  65 H65            1.7885    -6.9484   -16.1191 H       
@<TRIPOS>BOND
   1    1    2 1
   2    1    3 2
   3    2    5 2
   4    3    4 1
   5    3    6 1
   6    4    5 1
   7    5    9 1
   8    6    7 am
   9    6   38 1
  10    7    8 2
  11    7   20 1
  12    9   23 1
  13    9   39 1
  14    9   40 1
  15   10   11 1
  16   10   25 1
  17   10   41 1
  18   10   42 1
  19   11   12 2
  20   11   13 1
  21   12   15 1
  22   13   14 1
  23   14   15 2
  24   14   16 1
  25   16   17 am
  26   16   43 1
  27   17   18 2
  28   17   19 1
  29   19   22 1
  30   19   44 1
  31   19   45 1
  32   20   21 1
  33   20   46 1
  34   20   47 1
  35   21   26 1
  36   21   48 1
  37   21   49 1
  38   22   32 1
  39   22   50 1
  40   22   51 1
  41   23   24 1
  42   23   52 1
  43   23   53 1
  44   24   25 1
  45   25   54 1
  46   25   55 1
  47   26   27 ar
  48   26   31 ar
  49   27   28 ar
  50   27   56 1
  51   28   29 ar
  52   28   57 1
  53   29   30 ar
  54   29   58 1
  55   30   31 ar
  56   30   59 1
  57   31   60 1
  58   32   33 ar
  59   32   34 ar
  60   33   37 ar
  61   33   61 1
  62   34   35 ar
  63   34   62 1
  64   35   36 ar
  65   35   63 1
  66   36   37 ar
  67   36   64 1
  68   37   65 1

#	End of record

