#	Name: ASD01917021
#	Creating user name:	WinNT
#	Creation time:	15. 06. 2019 20:08

#	Modifying user name:	WinNT
#	Modification time:	15. 06. 2019 20:08

#	Program:	/corina/corina34_cracker 3.40 0067  02.08.2006

@<TRIPOS>MOLECULE
ASD01917021
  31   33    0    0    0
SMALL
NO_CHARGES


@<TRIPOS>ATOM
   1 C1            -0.0168     1.3910     0.0097 C.ar    
   2 C2             0.0021    -0.0041     0.0020 C.ar    
   3 C3             1.2527     2.1506     0.0016 C.2     
   4 N4             1.3726     3.4628     0.0076 N.2     
   5 C5             2.6600     3.7968    -0.0030 C.2     
   6 N6             3.3865     2.7093    -0.0157 N.2     
   7 N7             2.4978     1.6219    -0.0072 N.pl3   
   8 C8             3.1966     5.2050    -0.0010 C.3     
   9 C9             4.0715     5.4340     1.2439 C.3     
  10 C10           -1.1842    -0.7075     0.0091 C.ar    
  11 C11           -2.3936    -0.0309     0.0238 C.ar    
  12 C12           -2.4178     1.3547     0.0315 C.ar    
  13 C13           -1.2371     2.0674     0.0191 C.ar    
  14 F14           -3.5530    -0.7245     0.0302 F       
  15 C15            4.1075     5.4252    -1.2264 C.3     
  16 C16            5.2437     6.3348    -0.6965 C.3     
  17 C17            5.4836     5.7853     0.7316 C.3     
  18 H18            0.9441    -0.5322    -0.0098 H       
  19 H19            2.7303     0.6802    -0.0125 H       
  20 H20            2.3724     5.9183    -0.0145 H       
  21 H21            3.6725     6.2589     1.8342 H       
  22 H22            4.1080     4.5265     1.8467 H       
  23 H23           -1.1706    -1.7874     0.0028 H       
  24 H24           -3.3629     1.8773     0.0429 H       
  25 H25           -1.2570     3.1472     0.0251 H       
  26 H26            4.5113     4.4754    -1.5771 H       
  27 H27            3.5590     5.9255    -2.0244 H       
  28 H28            6.1403     6.2282    -1.3071 H       
  29 H29            4.9207     7.3752    -0.6609 H       
  30 H30            5.9393     6.5484     1.3624 H       
  31 H31            6.1096     4.8937     0.6971 H       
@<TRIPOS>BOND
   1    1    2 ar
   2    1    3 1
   3    1   13 ar
   4    2   10 ar
   5    2   18 1
   6    3    4 2
   7    3    7 1
   8    4    5 1
   9    5    6 2
  10    5    8 1
  11    6    7 1
  12    7   19 1
  13    8    9 1
  14    8   15 1
  15    8   20 1
  16    9   17 1
  17    9   21 1
  18    9   22 1
  19   10   11 ar
  20   10   23 1
  21   11   12 ar
  22   11   14 1
  23   12   13 ar
  24   12   24 1
  25   13   25 1
  26   15   16 1
  27   15   26 1
  28   15   27 1
  29   16   17 1
  30   16   28 1
  31   16   29 1
  32   17   30 1
  33   17   31 1

#	End of record

