#	Name: ASD01903185
#	Creating user name:	WinNT
#	Creation time:	15. 06. 2019 19:54

#	Modifying user name:	WinNT
#	Modification time:	15. 06. 2019 19:54

#	Program:	/corina/corina34_cracker 3.40 0067  02.08.2006

@<TRIPOS>MOLECULE
ASD01903185
  29   31    0    0    0
SMALL
NO_CHARGES


@<TRIPOS>ATOM
   1 S1            -0.0242     1.7573    -0.0298 S.3     
   2 C2             0.0013    -0.0032    -0.0097 C.2     
   3 N3             1.2300    -0.4176    -0.0142 N.2     
   4 C4             2.1804     0.5165    -0.0322 C.2     
   5 C5             1.7374     1.7859    -0.0436 C.2     
   6 N6            -1.1204    -0.8210     0.0091 N.pl3   
   7 C7            -2.3880    -0.2605     0.1295 C.ar    
   8 N8            -2.5129     1.0422     0.3311 N.ar    
   9 C9            -3.6964     1.6135     0.4504 C.ar    
  10 C10           -4.8545     0.8669     0.3684 C.ar    
  11 C11           -4.7672    -0.5031     0.1575 C.ar    
  12 C12           -3.5132    -1.0728     0.0312 C.ar    
  13 C13            3.6270     0.1790    -0.0389 C.2     
  14 C14            4.6436     0.8892    -0.7057 C.2     
  15 N15            5.7801     0.2862    -0.4747 N.2     
  16 N16            5.5362    -0.8244     0.3424 N.pl3   
  17 C17            4.2120    -0.8714     0.6046 C.2     
  18 F18            2.5106     2.8936    -0.0627 F       
  19 C19           -3.7847     3.1004     0.6795 C.3     
  20 H20           -1.0203    -1.7832    -0.0618 H       
  21 H21           -5.8188     1.3431     0.4676 H       
  22 H22           -5.6584    -1.1093     0.0900 H       
  23 H23           -3.4087    -2.1351    -0.1335 H       
  24 H24            4.5080     1.7780    -1.3041 H       
  25 H25            6.2031    -1.4495     0.6670 H       
  26 H26            3.7071    -1.6108     1.2086 H       
  27 H27           -3.8336     3.6138    -0.2808 H       
  28 H28           -4.6804     3.3262     1.2583 H       
  29 H29           -2.9041     3.4366     1.2269 H       
@<TRIPOS>BOND
   1    1    2 1
   2    1    5 1
   3    2    3 2
   4    2    6 1
   5    3    4 1
   6    4    5 2
   7    4   13 1
   8    5   18 1
   9    6    7 1
  10    6   20 1
  11    7    8 ar
  12    7   12 ar
  13    8    9 ar
  14    9   10 ar
  15    9   19 1
  16   10   11 ar
  17   10   21 1
  18   11   12 ar
  19   11   22 1
  20   12   23 1
  21   13   14 1
  22   13   17 2
  23   14   15 2
  24   14   24 1
  25   15   16 1
  26   16   17 1
  27   16   25 1
  28   17   26 1
  29   19   27 1
  30   19   28 1
  31   19   29 1

#	End of record

