#	Name: ASD03320043
#	Creating user name:	WinNT
#	Creation time:	15. 06. 2019 20:36

#	Modifying user name:	WinNT
#	Modification time:	15. 06. 2019 20:36

#	Program:	/corina/corina34_cracker 3.40 0067  02.08.2006

@<TRIPOS>MOLECULE
ASD03320043
  28   29    0    0    0
SMALL
NO_CHARGES


@<TRIPOS>ATOM
   1 C1            -2.1966     1.4400     0.5970 C.2     
   2 C2            -2.1790    -0.0374     0.5832 C.ar    
   3 C3            -3.2121    -0.7673     1.1852 C.ar    
   4 C4            -3.1488    -2.1487     1.1450 C.ar    
   5 C5            -2.0751    -2.7601     0.5161 C.ar    
   6 N6            -1.1159    -2.0450    -0.0423 N.ar    
   7 C7            -1.1360    -0.7283    -0.0348 C.ar    
   8 O8            -3.1128     2.0320     1.1339 O.2     
   9 N9            -1.1942     2.1313     0.0193 N.am    
  10 C10           -0.1148     4.2964     0.0411 C.ar    
  11 C11           -1.2644     3.5281    -0.0655 C.ar    
  12 C12           -2.4908     4.1624    -0.2586 C.ar    
  13 C13           -2.5135     5.5426    -0.3368 C.ar    
  14 C14           -1.3199     6.2481    -0.2211 C.ar    
  15 N15           -0.1727     5.6120    -0.0386 N.ar    
  16 S16           -1.3346     8.0073    -0.3190 S.3     
  17 C17            0.4149     8.4419    -0.1166 C.3     
  18 F18            1.1633     7.8527    -1.1412 F       
  19 F19            0.5596     9.8322    -0.1737 F       
  20 F20            0.8710     7.9761     1.1212 F       
  21 Cl21          -1.9903    -4.4932     0.4624 Cl      
  22 Br22          -4.5114    -3.1915     1.9397 Br      
  23 H23           -4.0366    -0.2645     1.6687 H       
  24 H24           -0.3355    -0.1782    -0.5070 H       
  25 H25           -0.4241     1.6618    -0.3378 H       
  26 H26            0.8383     3.8124     0.1953 H       
  27 H27           -3.4019     3.5889    -0.3454 H       
  28 H28           -3.4460     6.0665    -0.4863 H       
@<TRIPOS>BOND
   1    1    2 1
   2    1    8 2
   3    1    9 am
   4    2    3 ar
   5    2    7 ar
   6    3    4 ar
   7    3   23 1
   8    4    5 ar
   9    4   22 1
  10    5    6 ar
  11    5   21 1
  12    6    7 ar
  13    7   24 1
  14    9   11 1
  15    9   25 1
  16   10   11 ar
  17   10   15 ar
  18   10   26 1
  19   11   12 ar
  20   12   13 ar
  21   12   27 1
  22   13   14 ar
  23   13   28 1
  24   14   15 ar
  25   14   16 1
  26   16   17 1
  27   17   18 1
  28   17   19 1
  29   17   20 1

#	End of record

