#	Name: ASD07830001
#	Creating user name:	WinNT
#	Creation time:	15. 06. 2019 21:11

#	Modifying user name:	WinNT
#	Modification time:	15. 06. 2019 21:11

#	Program:	/corina/corina34_cracker 3.40 0067  02.08.2006

@<TRIPOS>MOLECULE
ASD07830001
 109  114    0    0    0
SMALL
NO_CHARGES


@<TRIPOS>ATOM
   1 C1            -2.2207    -7.5082     2.0270 C.ar    
   2 C2            -1.4170    -6.5542     1.4696 C.ar    
   3 C3            -1.8495    -5.2277     1.4172 C.ar    
   4 C4            -3.1090    -4.8790     1.9377 C.ar    
   5 C5            -3.9111    -5.8668     2.5003 C.ar    
   6 C6            -3.4645    -7.1692     2.5421 C.ar    
   7 C7            -1.2646    -3.9854     0.9066 C.2     
   8 C8            -2.1565    -3.0087     1.1354 C.2     
   9 N9            -3.2648    -3.5238     1.7508 N.pl3   
  10 C10            0.0830    -3.8329     0.2496 C.3     
  11 C11           -0.0638    -4.0137    -1.2654 C.3     
  12 N12           -0.9758    -3.0041    -1.7951 N.3     
  13 C13           -0.5980    -5.3867    -1.5505 C.2     
  14 O14           -1.4856    -5.4894    -2.3973 O.2     
  15 N15           -0.1763    -6.5072    -0.9457 N.am    
  16 C16           -0.7947    -1.6734    -1.2497 C.3     
  17 C17            1.1798    -7.0379    -1.0592 C.3     
  18 C18            1.8789    -6.9662     0.2735 C.2     
  19 C19            1.9895    -6.3001    -2.1231 C.3     
  20 C20            3.3100    -6.9982    -2.3231 C.2     
  21 C21            4.5085    -6.5793    -1.8880 C.2     
  22 N22            5.4772    -7.4733    -2.2585 N.pl3   
  23 C23            4.9098    -8.5145    -2.9584 C.ar    
  24 C24            3.5282    -8.2659    -3.0239 C.ar    
  25 C25            5.4275    -9.6637    -3.5498 C.ar    
  26 C26            4.5888   -10.5427    -4.1982 C.ar    
  27 C27            3.2246   -10.2980    -4.2713 C.ar    
  28 C28            2.6864    -9.1690    -3.6851 C.ar    
  29 O29            1.3505    -8.9313    -3.7578 O.3     
  30 C30            0.5417    -9.9493    -4.3506 C.3     
  31 N31            3.1560    -7.4376     0.3792 N.am    
  32 O32            1.3128    -6.5066     1.2431 O.2     
  33 C33            3.7470    -7.4007     1.7356 C.3     
  34 C34            4.8430    -6.3653     1.7733 C.2     
  35 N35            5.0513    -5.6789     2.9284 N.am    
  36 O36            5.5181    -6.1528     0.7895 O.2     
  37 C37            6.1927    -4.7430     2.9750 C.3     
  38 C38            5.6699    -3.3318     3.0431 C.2     
  39 C39            7.0364    -5.0591     4.2128 C.3     
  40 C40            5.2123    -0.6318     2.2117 C.2     
  41 N41            6.4358    -2.3383     3.5635 N.am    
  42 O42            4.5413    -3.1033     2.6451 O.2     
  43 C43            5.9881    -1.0031     3.4055 C.2     
  44 C44            6.3554    -0.0830     4.3032 C.2     
  45 C45            7.6499    -6.4534     4.0694 C.3     
  46 N46            4.4443     0.4916     2.1648 N.am    
  47 O47            5.3321    -1.3101     1.2031 O.2     
  48 C48            3.5536     0.9301     3.2363 C.3     
  49 C49            4.5953     1.2593     0.9059 C.3     
  50 C50            3.4933     2.2798     0.7805 C.2     
  51 N51            2.2782     1.8464     0.3307 N.am    
  52 O52            3.6867     3.4454     1.0567 O.2     
  53 C53            1.2330     2.8735     0.1203 C.3     
  54 C54            0.2659     2.3256    -0.8999 C.2     
  55 C55            0.4922     3.1319     1.4352 C.3     
  56 N56           -0.0478     1.0808    -0.9980 N.2     
  57 C57           -0.9104     0.7688    -1.9720 C.2     
  58 C58           -1.3396     1.8290    -2.7094 C.2     
  59 S59           -0.5962     3.2542    -2.1167 S.3     
  60 C60           -1.3321    -0.6188    -2.1916 C.2     
  61 O61           -2.0823    -0.9105    -3.0923 O.2     
  62 H62           -1.8876    -8.5349     2.0632 H       
  63 H63           -0.4504    -6.8252     1.0712 H       
  64 H64           -4.8802    -5.6131     2.9038 H       
  65 H65           -4.0888    -7.9346     2.9790 H       
  66 H66           -2.0196    -1.9700     0.8730 H       
  67 H67           -4.0441    -3.0107     2.0158 H       
  68 H68            0.4796    -2.8397     0.4602 H       
  69 H69            0.7656    -4.5872     0.6411 H       
  70 H70            0.9155    -3.8867    -1.7327 H       
  71 H71           -1.3047    -3.1063    -2.7064 H       
  72 H72           -0.8282    -7.0055    -0.3832 H       
  73 H73           -1.3228    -1.5750    -0.2955 H       
  74 H74            0.2676    -1.4678    -1.0840 H       
  75 H75            1.1206    -8.0990    -1.3513 H       
  76 H76            1.4357    -6.2942    -3.0619 H       
  77 H77            2.1661    -5.2745    -1.7989 H       
  78 H78            4.6831    -5.6717    -1.3292 H       
  79 H79            6.4222    -7.3860    -2.0582 H       
  80 H80            6.4873    -9.8656    -3.5004 H       
  81 H81            4.9972   -11.4321    -4.6551 H       
  82 H82            2.5800   -10.9967    -4.7840 H       
  83 H83           -0.5088    -9.6689    -4.2748 H       
  84 H84            0.8125   -10.0632    -5.4003 H       
  85 H85            0.7046   -10.8925    -3.8290 H       
  86 H86            3.6478    -7.7847    -0.3838 H       
  87 H87            2.9828    -7.1502     2.4712 H       
  88 H88            4.1693    -8.3796     1.9739 H       
  89 H89            4.4704    -5.8018     3.6986 H       
  90 H90            6.8033    -4.8620     2.0814 H       
  91 H91            7.8320    -4.3202     4.3085 H       
  92 H92            6.4045    -5.0297     5.1004 H       
  93 H93            7.2786    -2.5081     4.0292 H       
  94 H94            6.9852    -0.3614     5.1351 H       
  95 H95            6.0222     0.9388     4.1964 H       
  96 H96            6.8543    -7.1923     3.9736 H       
  97 H97            8.2818    -6.4827     3.1817 H       
  98 H98            8.2506    -6.6784     4.9506 H       
  99 H99            3.6048     0.2225     4.0637 H       
 100 H100           3.8604     1.9170     3.5827 H       
 101 H101           2.5311     0.9781     2.8620 H       
 102 H102           5.5618     1.7617     0.9080 H       
 103 H103           4.5466     0.5700     0.0613 H       
 104 H104           2.1083     0.9037     0.1550 H       
 105 H105           1.6780     3.7957    -0.2454 H       
 106 H106           1.1798     3.5675     2.1601 H       
 107 H107          -0.3333     3.8212     1.2577 H       
 108 H108           0.1026     2.1909     1.8237 H       
 109 H109          -2.0342     1.7832    -3.5351 H       
@<TRIPOS>BOND
   1    1    2 ar
   2    1    6 ar
   3    1   62 1
   4    2    3 ar
   5    2   63 1
   6    3    4 ar
   7    3    7 1
   8    4    5 ar
   9    4    9 1
  10    5    6 ar
  11    5   64 1
  12    6   65 1
  13    7    8 2
  14    7   10 1
  15    8    9 1
  16    8   66 1
  17    9   67 1
  18   10   11 1
  19   10   68 1
  20   10   69 1
  21   11   12 1
  22   11   13 1
  23   11   70 1
  24   12   16 1
  25   12   71 1
  26   13   14 2
  27   13   15 am
  28   15   17 1
  29   15   72 1
  30   16   60 1
  31   16   73 1
  32   16   74 1
  33   17   18 1
  34   17   19 1
  35   17   75 1
  36   18   31 am
  37   18   32 2
  38   19   20 1
  39   19   76 1
  40   19   77 1
  41   20   21 2
  42   20   24 1
  43   21   22 1
  44   21   78 1
  45   22   23 1
  46   22   79 1
  47   23   24 ar
  48   23   25 ar
  49   24   28 ar
  50   25   26 ar
  51   25   80 1
  52   26   27 ar
  53   26   81 1
  54   27   28 ar
  55   27   82 1
  56   28   29 1
  57   29   30 1
  58   30   83 1
  59   30   84 1
  60   30   85 1
  61   31   33 1
  62   31   86 1
  63   33   34 1
  64   33   87 1
  65   33   88 1
  66   34   35 am
  67   34   36 2
  68   35   37 1
  69   35   89 1
  70   37   38 1
  71   37   39 1
  72   37   90 1
  73   38   41 am
  74   38   42 2
  75   39   45 1
  76   39   91 1
  77   39   92 1
  78   40   46 am
  79   40   47 2
  80   40   43 1
  81   41   43 1
  82   41   93 1
  83   43   44 2
  84   44   94 1
  85   44   95 1
  86   45   96 1
  87   45   97 1
  88   45   98 1
  89   46   48 1
  90   46   49 1
  91   48   99 1
  92   48  100 1
  93   48  101 1
  94   49   50 1
  95   49  102 1
  96   49  103 1
  97   50   51 am
  98   50   52 2
  99   51   53 1
 100   51  104 1
 101   53   54 1
 102   53   55 1
 103   53  105 1
 104   54   56 2
 105   54   59 1
 106   55  106 1
 107   55  107 1
 108   55  108 1
 109   56   57 1
 110   57   58 2
 111   57   60 1
 112   58   59 1
 113   58  109 1
 114   60   61 2

#	End of record

