#	Name: ASD00840763
#	Creating user name:	WinNT
#	Creation time:	15. 06. 2019 18:39

#	Modifying user name:	WinNT
#	Modification time:	15. 06. 2019 18:39

#	Program:	/corina/corina34_cracker 3.40 0067  02.08.2006

@<TRIPOS>MOLECULE
ASD00840763
  89   94    0    0    0
SMALL
NO_CHARGES


@<TRIPOS>ATOM
   1 F1             6.0620    -1.9836    -1.9884 F       
   2 N2             1.0513     1.4388    -0.7561 N.ar    
   3 C3             1.3111     0.1460    -0.8567 C.ar    
   4 C4             1.2291    -0.6812     0.2564 C.ar    
   5 C5             0.8710    -0.1348     1.4762 C.ar    
   6 C6             0.6063     1.2265     1.5399 C.ar    
   7 C7             0.7075     1.9885     0.3933 C.ar    
   8 C8             1.5256    -2.1539     0.1368 C.3     
   9 C9             1.2342    -2.8613     1.4431 C.2     
  10 C10            0.7110    -2.7726    -1.0010 C.3     
  11 C11           -0.7509    -2.4711    -0.7939 C.2     
  12 N12           -1.6717    -2.9952    -1.6269 N.am    
  13 O13           -1.0989    -1.7568     0.1225 O.2     
  14 C14           -3.0913    -2.6290    -1.5094 C.3     
  15 C15           -3.5985    -2.1972    -2.8895 C.3     
  16 N16           -3.3086    -3.2546    -3.8671 N.3     
  17 C17           -1.8619    -3.4646    -4.0116 C.3     
  18 C18           -1.2827    -3.9438    -2.6815 C.3     
  19 N19           -3.9231    -2.9596    -5.1514 N.3     
  20 C20           -3.6331    -4.0174    -6.1294 C.3     
  21 C21           -4.3612    -3.7102    -7.4401 C.3     
  22 N22           -3.9276    -2.3991    -7.9426 N.3     
  23 C23           -4.2176    -1.3412    -6.9646 C.3     
  24 C24           -3.4895    -1.6484    -5.6539 C.3     
  25 C25           -4.5485    -2.1010    -9.2402 C.3     
  26 O26            0.1586    -2.9333     1.9991 O.2     
  27 N27            2.3908    -3.3951     1.8707 N.am    
  28 C28            3.0038    -2.3803    -0.0825 C.ar    
  29 C29            3.4488    -3.1312     0.9983 C.ar    
  30 C30            3.8712    -1.9959    -1.0800 C.ar    
  31 C31            5.2070    -2.3590    -1.0120 C.ar    
  32 C32            5.6626    -3.1079     0.0611 C.ar    
  33 C33            4.7924    -3.4934     1.0616 C.ar    
  34 Cl34           7.3354    -3.5637     0.1482 Cl      
  35 C35            2.2506    -5.9555     2.8703 C.ar    
  36 C36            0.9987    -6.3567     2.4279 C.ar    
  37 C37            3.2690    -6.8815     2.9906 C.ar    
  38 C38            3.0411    -8.2068     2.6702 C.ar    
  39 C39            1.7939    -8.6094     2.2289 C.ar    
  40 C40            0.7724    -7.6876     2.1073 C.ar    
  41 H41            1.6183    -9.6453     1.9792 H       
  42 O42           -0.0047    -5.4479     2.3091 O.3     
  43 C43           -1.2674    -5.9322     1.8476 C.3     
  44 C44           -2.2639    -4.7733     1.7787 C.3     
  45 O45            1.6606    -0.3776    -2.0586 O.3     
  46 C46            2.1544    -0.2284    -4.4196 C.3     
  47 C47            1.6186     0.5002    -3.1855 C.3     
  48 S48            2.5441    -4.2650     3.2714 S.o2    
  49 O49            3.9100    -4.1744     3.6526 O.2     
  50 O50            1.4736    -3.8609     4.1139 O.2     
  51 H51            0.7988    -0.7534     2.3586 H       
  52 H52            0.3240     1.6844     2.4764 H       
  53 H53            0.5030     3.0481     0.4375 H       
  54 H54            1.0375    -2.3519    -1.9521 H       
  55 H55            0.8616    -3.8521    -1.0104 H       
  56 H56           -3.6637    -3.4890    -1.1616 H       
  57 H57           -3.1997    -1.8044    -0.8050 H       
  58 H58           -4.6743    -2.0279    -2.8450 H       
  59 H59           -3.0972    -1.2770    -3.1896 H       
  60 H60           -1.6783    -4.2146    -4.7810 H       
  61 H61           -1.3848    -2.5268    -4.2961 H       
  62 H62           -0.1959    -3.9909    -2.7511 H       
  63 H63           -1.6802    -4.9303    -2.4431 H       
  64 H64           -2.5592    -4.0600    -6.3113 H       
  65 H65           -3.9746    -4.9764    -5.7398 H       
  66 H66           -4.1243    -4.4783    -8.1763 H       
  67 H67           -5.4367    -3.6945    -7.2637 H       
  68 H68           -3.8761    -0.3822    -7.3542 H       
  69 H69           -5.2915    -1.2986    -6.7828 H       
  70 H70           -3.7264    -0.8803    -4.9177 H       
  71 H71           -2.4140    -1.6641    -5.8304 H       
  72 H72           -5.6329    -2.0921    -9.1306 H       
  73 H73           -4.2105    -1.1252    -9.5891 H       
  74 H74           -4.2627    -2.8645    -9.9637 H       
  75 H75            3.5112    -1.4126    -1.9145 H       
  76 H76            5.1544    -4.0770     1.8950 H       
  77 H77            4.2439    -6.5696     3.3350 H       
  78 H78            3.8386    -8.9290     2.7643 H       
  79 H79           -0.2017    -8.0026     1.7633 H       
  80 H80           -1.1488    -6.3688     0.8559 H       
  81 H81           -1.6394    -6.6908     2.5364 H       
  82 H82           -2.3826    -4.3367     2.7704 H       
  83 H83           -1.8920    -4.0148     1.0899 H       
  84 H84           -3.2271    -5.1428     1.4267 H       
  85 H85            3.1512    -0.6156    -4.2087 H       
  86 H86            1.4893    -1.0545    -4.6711 H       
  87 H87            2.2043     0.4661    -5.2583 H       
  88 H88            0.5895     0.8113    -3.3655 H       
  89 H89            2.2338     1.3775    -2.9859 H       
@<TRIPOS>BOND
   1    1   31 1
   2    2    3 ar
   3    2    7 ar
   4    3    4 ar
   5    3   45 1
   6    4    5 ar
   7    4    8 1
   8    5    6 ar
   9    5   51 1
  10    6    7 ar
  11    6   52 1
  12    7   53 1
  13    8    9 1
  14    8   10 1
  15    8   28 1
  16    9   26 2
  17    9   27 am
  18   10   11 1
  19   10   54 1
  20   10   55 1
  21   11   12 am
  22   11   13 2
  23   12   14 1
  24   12   18 1
  25   14   15 1
  26   14   56 1
  27   14   57 1
  28   15   16 1
  29   15   58 1
  30   15   59 1
  31   16   17 1
  32   16   19 1
  33   17   18 1
  34   17   60 1
  35   17   61 1
  36   18   62 1
  37   18   63 1
  38   19   20 1
  39   19   24 1
  40   20   21 1
  41   20   64 1
  42   20   65 1
  43   21   22 1
  44   21   66 1
  45   21   67 1
  46   22   23 1
  47   22   25 1
  48   23   24 1
  49   23   68 1
  50   23   69 1
  51   24   70 1
  52   24   71 1
  53   25   72 1
  54   25   73 1
  55   25   74 1
  56   27   48 am
  57   27   29 1
  58   28   29 ar
  59   28   30 ar
  60   29   33 ar
  61   30   31 ar
  62   30   75 1
  63   31   32 ar
  64   32   33 ar
  65   32   34 1
  66   33   76 1
  67   35   36 ar
  68   35   37 ar
  69   35   48 1
  70   36   42 1
  71   36   40 ar
  72   37   38 ar
  73   37   77 1
  74   38   39 ar
  75   38   78 1
  76   39   40 ar
  77   39   41 1
  78   40   79 1
  79   42   43 1
  80   43   44 1
  81   43   80 1
  82   43   81 1
  83   44   82 1
  84   44   83 1
  85   44   84 1
  86   45   47 1
  87   46   47 1
  88   46   85 1
  89   46   86 1
  90   46   87 1
  91   47   88 1
  92   47   89 1
  93   48   49 2
  94   48   50 2

#	End of record

