#	Name: ASD01140709
#	Creating user name:	WinNT
#	Creation time:	15. 06. 2019 19:01

#	Modifying user name:	WinNT
#	Modification time:	15. 06. 2019 19:01

#	Program:	/corina/corina34_cracker 3.40 0067  02.08.2006

@<TRIPOS>MOLECULE
ASD01140709
  38   41    0    0    0
SMALL
NO_CHARGES


@<TRIPOS>ATOM
   1 N1            -0.0161     1.3387     0.0094 N.pl3   
   2 C2             0.0021    -0.0041     0.0020 C.2     
   3 C3             1.1791    -0.7099    -0.0130 C.2     
   4 C4             2.4648     0.0244    -0.0213 C.2     
   5 C5             2.4001     1.4980    -0.0135 C.ar    
   6 C6             3.5552     2.2748    -0.0212 C.ar    
   7 C7             3.4556     3.6493    -0.0144 C.ar    
   8 C8             2.2051     4.2589     0.0001 C.ar    
   9 C9             1.0507     3.4953     0.0079 C.ar    
  10 C10            1.1344     2.1083     0.0025 C.ar    
  11 N11            2.8976    -2.1590    -0.0371 N.am    
  12 N12            3.4184    -0.8626    -0.0351 N.2     
  13 C13            1.5477    -2.1223    -0.0241 C.2     
  14 O14            0.7886    -3.0778    -0.0214 O.2     
  15 C15            3.0521    -4.5744    -0.0517 C.ar    
  16 C16            3.6666    -3.3307    -0.0503 C.ar    
  17 C17            5.0586    -3.2613    -0.0627 C.ar    
  18 C18            5.7767    -4.4437    -0.0760 C.ar    
  19 C19            5.0921    -5.6520    -0.0765 C.ar    
  20 N20            3.7699    -5.6809    -0.0650 N.ar    
  21 O21            5.7882    -6.8172    -0.0895 O.3     
  22 C22            5.0280    -8.0272    -0.0893 C.3     
  23 H23            4.4078    -8.0665     0.8062 H       
  24 H24            4.3915    -8.0564    -0.9737 H       
  25 H25            5.7048    -8.8815    -0.1003 H       
  26 O26            2.1164     5.6146     0.0072 O.3     
  27 C27            3.3445     6.3451    -0.0010 C.3     
  28 H28           -0.8748     1.7899     0.0158 H       
  29 H29           -0.9340    -0.5427     0.0084 H       
  30 H30            4.5261     1.8019    -0.0322 H       
  31 H31            4.3501     4.2544    -0.0200 H       
  32 H32            0.0845     3.9777     0.0192 H       
  33 H33            1.9740    -4.6374    -0.0377 H       
  34 H34            5.5645    -2.3072    -0.0623 H       
  35 H35            6.8565    -4.4272    -0.0861 H       
  36 H36            3.9111     6.0934    -0.8975 H       
  37 H37            3.1315     7.4141     0.0059 H       
  38 H38            3.9278     6.0852     0.8824 H       
@<TRIPOS>BOND
   1    1    2 1
   2    1   10 1
   3    1   28 1
   4    2    3 2
   5    2   29 1
   6    3    4 1
   7    3   13 1
   8    4    5 1
   9    4   12 2
  10    5    6 ar
  11    5   10 ar
  12    6    7 ar
  13    6   30 1
  14    7    8 ar
  15    7   31 1
  16    8    9 ar
  17    8   26 1
  18    9   10 ar
  19    9   32 1
  20   11   12 1
  21   11   13 am
  22   11   16 1
  23   13   14 2
  24   15   16 ar
  25   15   20 ar
  26   15   33 1
  27   16   17 ar
  28   17   18 ar
  29   17   34 1
  30   18   19 ar
  31   18   35 1
  32   19   20 ar
  33   19   21 1
  34   21   22 1
  35   22   23 1
  36   22   24 1
  37   22   25 1
  38   26   27 1
  39   27   36 1
  40   27   37 1
  41   27   38 1

#	End of record

