#	Name: ASD05720047
#	Creating user name:	WinNT
#	Creation time:	15. 06. 2019 21:01

#	Modifying user name:	WinNT
#	Modification time:	15. 06. 2019 21:01

#	Program:	/corina/corina34_cracker 3.40 0067  02.08.2006

@<TRIPOS>MOLECULE
ASD05720047
  49   53    0    0    0
SMALL
NO_CHARGES


@<TRIPOS>ATOM
   1 O1            -0.1052     1.1932     0.1309 O.3     
   2 C2             0.0755    -0.1222    -0.0315 C.2     
   3 N3             1.3622    -0.4854    -0.1223 N.am    
   4 C4             2.2046     0.7153    -0.0116 C.3     
   5 C5             1.1892     1.8613     0.1617 C.3     
   6 O6            -0.8430    -0.9153    -0.0911 O.2     
   7 C7             3.0271     0.9142    -1.2864 C.3     
   8 C8             2.0853     1.0582    -2.4836 C.3     
   9 C9             3.8783     2.1784    -1.1521 C.3     
  10 C10            3.5741    -3.2489    -0.6462 C.2     
  11 N11            3.1120    -2.0057    -0.4810 N.2     
  12 C12            1.8248    -1.7837    -0.2926 C.2     
  13 C13            0.9192    -2.8637    -0.2637 C.2     
  14 C14            1.3833    -4.1230    -0.4305 C.2     
  15 N15            2.7223    -4.3214    -0.6238 N.pl3   
  16 N16            3.4827    -5.4795    -0.8212 N.2     
  17 C17            4.7436    -5.1509    -0.9600 C.2     
  18 C18            4.8611    -3.7588    -0.8645 C.2     
  19 C19            6.1107    -2.9733    -0.9716 C.ar    
  20 C20            7.2286    -3.3337    -0.2161 C.ar    
  21 C21            8.3909    -2.6034    -0.3154 C.ar    
  22 C22            8.4524    -1.5014    -1.1721 C.ar    
  23 C23            7.3337    -1.1412    -1.9278 C.ar    
  24 C24            6.1735    -1.8754    -1.8323 C.ar    
  25 S25            9.9540     0.6964    -2.3040 S.3     
  26 C26            9.6994    -0.7171    -1.2786 C.2     
  27 N27           10.8076    -0.9458    -0.6320 N.2     
  28 N28           11.7806    -0.1724    -0.8444 N.2     
  29 C29           11.6072     0.7997    -1.6954 C.2     
  30 N30           12.5530     1.7455    -2.0581 N.pl3   
  31 H31            2.8567     0.6466     0.8591 H       
  32 H32            1.2718     2.5725    -0.6601 H       
  33 H33            1.3380     2.3622     1.1183 H       
  34 H34            3.6774     0.0526    -1.4373 H       
  35 H35            1.3794     1.8671    -2.2953 H       
  36 H36            2.6664     1.2838    -3.3778 H       
  37 H37            1.5393     0.1263    -2.6305 H       
  38 H38            4.6086     2.0416    -0.3546 H       
  39 H39            4.3974     2.3684    -2.0915 H       
  40 H40            3.2353     3.0258    -0.9145 H       
  41 H41           -0.1350    -2.6872    -0.1095 H       
  42 H42            0.7041    -4.9624    -0.4109 H       
  43 H43            5.5582    -5.8405    -1.1249 H       
  44 H44            7.1809    -4.1853     0.4464 H       
  45 H45            9.2553    -2.8820     0.2692 H       
  46 H46            7.3808    -0.2895    -2.5902 H       
  47 H47            5.3102    -1.5997    -2.4196 H       
  48 H48           12.3280     2.4334    -2.7038 H       
  49 H49           13.4399     1.7195    -1.6662 H       
@<TRIPOS>BOND
   1    1    2 1
   2    1    5 1
   3    2    3 am
   4    2    6 2
   5    3    4 1
   6    3   12 1
   7    4    5 1
   8    4    7 1
   9    4   31 1
  10    5   32 1
  11    5   33 1
  12    7    8 1
  13    7    9 1
  14    7   34 1
  15    8   35 1
  16    8   36 1
  17    8   37 1
  18    9   38 1
  19    9   39 1
  20    9   40 1
  21   10   11 1
  22   10   15 1
  23   10   18 2
  24   11   12 2
  25   12   13 1
  26   13   14 2
  27   13   41 1
  28   14   15 1
  29   14   42 1
  30   15   16 1
  31   16   17 2
  32   17   18 1
  33   17   43 1
  34   18   19 1
  35   19   20 ar
  36   19   24 ar
  37   20   21 ar
  38   20   44 1
  39   21   22 ar
  40   21   45 1
  41   22   23 ar
  42   22   26 1
  43   23   24 ar
  44   23   46 1
  45   24   47 1
  46   25   26 1
  47   25   29 1
  48   26   27 2
  49   27   28 1
  50   28   29 2
  51   29   30 1
  52   30   48 1
  53   30   49 1

#	End of record

