#	Name: ASD03090190
#	Creating user name:	WinNT
#	Creation time:	15. 06. 2019 20:28

#	Modifying user name:	WinNT
#	Modification time:	15. 06. 2019 20:28

#	Program:	/corina/corina34_cracker 3.40 0067  02.08.2006

@<TRIPOS>MOLECULE
ASD03090190
  42   44    0    0    0
SMALL
NO_CHARGES


@<TRIPOS>ATOM
   1 N1             0.4454     1.5141     1.4657 N.ar    
   2 C2             0.4074     0.1959     1.4319 C.ar    
   3 C3             1.5344    -0.5376     1.1223 C.ar    
   4 C4             2.7273     0.1374     0.8421 C.ar    
   5 C5             2.7214     1.5356     0.8892 C.ar    
   6 C6             1.5489     2.1894     1.2082 C.ar    
   7 C7             3.9614    -0.6070     0.5055 C.2     
   8 N8             5.7412    -3.4565    -0.5275 N.pl3   
   9 C9             4.8157    -4.4450    -0.8726 C.ar    
  10 C10            3.5997    -4.0913    -1.4433 C.ar    
  11 C11            2.6874    -5.0709    -1.7835 C.ar    
  12 C12            2.9834    -6.4023    -1.5566 C.ar    
  13 C13            4.1933    -6.7580    -0.9885 C.ar    
  14 C14            5.1120    -5.7842    -0.6508 C.ar    
  15 N15            4.0261    -1.8632     0.1122 N.2     
  16 C16            5.2977    -2.2026    -0.1026 C.2     
  17 N17            6.0659    -1.1676     0.1504 N.2     
  18 N18            5.2205    -0.1168     0.5417 N.pl3   
  19 C19            5.6240     1.2390     0.9230 C.3     
  20 C20            5.7298     2.1109    -0.3298 C.3     
  21 O21            6.1234     3.4333     0.0420 O.3     
  22 C22            6.2520     4.3332    -1.0606 C.3     
  23 C23            4.5114    -8.2105    -0.7431 C.3     
  24 F24            3.4387    -9.0012    -1.1687 F       
  25 F25            5.6622    -8.5628    -1.4564 F       
  26 F26            4.7287    -8.4158     0.6235 F       
  27 H27           -0.5182    -0.3161     1.6497 H       
  28 H28            1.4962    -1.6166     1.0971 H       
  29 H29            3.6213     2.0949     0.6798 H       
  30 H30            1.5343     3.2686     1.2468 H       
  31 H31            6.6918    -3.6415    -0.5833 H       
  32 H32            3.3678    -3.0515    -1.6204 H       
  33 H33            1.7416    -4.7965    -2.2270 H       
  34 H34            2.2681    -7.1663    -1.8233 H       
  35 H35            6.0566    -6.0626    -0.2072 H       
  36 H36            4.8811     1.6627     1.5988 H       
  37 H37            6.5917     1.2029     1.4233 H       
  38 H38            6.4726     1.6873    -1.0057 H       
  39 H39            4.7621     2.1470    -0.8302 H       
  40 H40            6.5534     5.3149    -0.6952 H       
  41 H41            7.0057     3.9556    -1.7516 H       
  42 H42            5.2951     4.4154    -1.5761 H       
@<TRIPOS>BOND
   1    1    2 ar
   2    1    6 ar
   3    2    3 ar
   4    2   27 1
   5    3    4 ar
   6    3   28 1
   7    4    5 ar
   8    4    7 1
   9    5    6 ar
  10    5   29 1
  11    6   30 1
  12    7   15 2
  13    7   18 1
  14    8    9 1
  15    8   16 1
  16    8   31 1
  17    9   10 ar
  18    9   14 ar
  19   10   11 ar
  20   10   32 1
  21   11   12 ar
  22   11   33 1
  23   12   13 ar
  24   12   34 1
  25   13   14 ar
  26   13   23 1
  27   14   35 1
  28   15   16 1
  29   16   17 2
  30   17   18 1
  31   18   19 1
  32   19   20 1
  33   19   36 1
  34   19   37 1
  35   20   21 1
  36   20   38 1
  37   20   39 1
  38   21   22 1
  39   22   40 1
  40   22   41 1
  41   22   42 1
  42   23   24 1
  43   23   25 1
  44   23   26 1

#	End of record

