#	Name: ASD01180009
#	Creating user name:	WinNT
#	Creation time:	15. 06. 2019 19:06

#	Modifying user name:	WinNT
#	Modification time:	15. 06. 2019 19:06

#	Program:	/corina/corina34_cracker 3.40 0067  02.08.2006

@<TRIPOS>MOLECULE
ASD01180009
  30   31    0    0    0
SMALL
NO_CHARGES


@<TRIPOS>ATOM
   1 N1            -0.0157     1.3093     0.0092 N.ar    
   2 C2             0.0021    -0.0041     0.0020 C.ar    
   3 C3             1.2121    -0.7010    -0.0128 C.ar    
   4 N4             2.3571    -0.0573    -0.0198 N.ar    
   5 C5             2.3657     1.2801    -0.0131 C.ar    
   6 C6             3.5740     1.9978    -0.0198 C.ar    
   7 C7             3.5506     3.3594    -0.0123 C.ar    
   8 C8             2.3408     4.0562     0.0024 C.ar    
   9 C9             1.1513     3.3932     0.0092 C.ar    
  10 C10            1.1368     1.9880     0.0019 C.ar    
  11 S11           -1.5173    -0.8962     0.0117 S.o     
  12 O12           -2.4287     0.0309     0.5854 O.2     
  13 C13           -1.8861    -1.0934    -1.7534 C.3     
  14 C14            1.2042    -2.2080    -0.0204 C.3     
  15 C15            1.9111    -2.7154    -1.2789 C.3     
  16 C16            1.9344    -2.7280     1.2195 C.3     
  17 Cl17           2.3531     5.7921     0.0127 Cl      
  18 Cl18           5.0460     4.2411    -0.0206 Cl      
  19 H19            4.5171     1.4718    -0.0304 H       
  20 H20            0.2230     3.9450     0.0209 H       
  21 H21           -1.0788    -1.6462    -2.2337 H       
  22 H22           -2.8212    -1.6411    -1.8703 H       
  23 H23           -1.9799    -0.1113    -2.2169 H       
  24 H24            0.1747    -2.5659    -0.0126 H       
  25 H25            2.9406    -2.3574    -1.2867 H       
  26 H26            1.9053    -3.8053    -1.2843 H       
  27 H27            1.3908    -2.3449    -2.1622 H       
  28 H28            2.9639    -2.3700     1.2116 H       
  29 H29            1.4308    -2.3665     2.1160 H       
  30 H30            1.9287    -3.8180     1.2140 H       
@<TRIPOS>BOND
   1    1    2 ar
   2    1   10 ar
   3    2    3 ar
   4    2   11 1
   5    3    4 ar
   6    3   14 1
   7    4    5 ar
   8    5    6 ar
   9    5   10 ar
  10    6    7 ar
  11    6   19 1
  12    7    8 ar
  13    7   18 1
  14    8    9 ar
  15    8   17 1
  16    9   10 ar
  17    9   20 1
  18   11   12 2
  19   11   13 1
  20   13   21 1
  21   13   22 1
  22   13   23 1
  23   14   15 1
  24   14   16 1
  25   14   24 1
  26   15   25 1
  27   15   26 1
  28   15   27 1
  29   16   28 1
  30   16   29 1
  31   16   30 1

#	End of record

