#	Name: ASD01883817
#	Creating user name:	WinNT
#	Creation time:	15. 06. 2019 19:47

#	Modifying user name:	WinNT
#	Modification time:	15. 06. 2019 19:47

#	Program:	/corina/corina34_cracker 3.40 0067  02.08.2006

@<TRIPOS>MOLECULE
ASD01883817
  56   60    0    0    0
SMALL
NO_CHARGES


@<TRIPOS>ATOM
   1 C1             0.0292     1.5122     0.3432 C.ar    
   2 C2             0.0656     0.1997     0.8057 C.ar    
   3 C3             1.2604    -0.5044     0.8276 C.ar    
   4 C4             2.4261     0.0998     0.3872 C.ar    
   5 C5             2.3876     1.4263    -0.0798 C.ar    
   6 C6             1.1807     2.1250    -0.0974 C.ar    
   7 N7             3.7390    -0.3357     0.2904 N.pl3   
   8 N8             4.5319     0.6921    -0.2297 N.am    
   9 C9             3.7634     1.7738    -0.4688 C.2     
  10 O10            4.1378     2.8387    -0.9221 O.2     
  11 O11           -1.0752    -0.3946     1.2382 O.3     
  12 C12           -2.2716     0.3854     1.1899 C.3     
  13 C13           -3.4265    -0.4339     1.7057 C.ar    
  14 C14           -3.7408    -0.4121     3.0492 C.ar    
  15 C15           -4.8093    -1.1698     3.5247 C.ar    
  16 C16           -5.5547    -1.9456     2.6397 C.ar    
  17 C17           -5.2316    -1.9601     1.2977 C.ar    
  18 C18           -4.1734    -1.2021     0.8305 C.ar    
  19 C19           -5.1516    -1.1507     4.9686 C.ar    
  20 C20           -4.4038    -0.3736     5.8529 C.ar    
  21 C21           -4.7191    -0.3531     7.1972 C.ar    
  22 C22           -5.7776    -1.1015     7.6758 C.ar    
  23 C23           -6.5348    -1.8846     6.7988 C.ar    
  24 C24           -6.2218    -1.9030     5.4400 C.ar    
  25 C25            5.9080     0.6106    -0.4654 C.ar    
  26 Cl26          -6.1673    -1.0701     9.3672 Cl      
  27 C27           -7.6658    -2.6852     7.3091 C.2     
  28 O28           -8.3939    -3.4388     6.4625 O.3     
  29 O29           -7.9397    -2.6642     8.4925 O.2     
  30 C30            4.2205    -1.6650     0.6740 C.3     
  31 C31            6.4312     1.0247    -1.6835 C.ar    
  32 C32            7.7907     0.9429    -1.9130 C.ar    
  33 C33            8.6306     0.4489    -0.9318 C.ar    
  34 C34            8.1127     0.0353     0.2820 C.ar    
  35 C35            6.7550     0.1207     0.5203 C.ar    
  36 H36           -0.9070     2.0505     0.3259 H       
  37 H37            1.2816    -1.5223     1.1880 H       
  38 H38            1.1494     3.1433    -0.4560 H       
  39 H39           -2.1512     1.2740     1.8095 H       
  40 H40           -2.4692     0.6842     0.1605 H       
  41 H41           -3.1594     0.1909     3.7311 H       
  42 H42           -6.3836    -2.5350     3.0030 H       
  43 H43           -5.8088    -2.5612     0.6108 H       
  44 H44           -3.9242    -1.2160    -0.2203 H       
  45 H45           -3.5753     0.2136     5.4853 H       
  46 H46           -4.1359     0.2500     7.8773 H       
  47 H47           -6.8031    -2.5055     4.7579 H       
  48 H48           -9.1243    -3.9455     6.8430 H       
  49 H49            3.3743    -2.2891     0.9612 H       
  50 H50            4.7387    -2.1212    -0.1695 H       
  51 H51            4.9070    -1.5739     1.5158 H       
  52 H52            5.7757     1.4100    -2.4505 H       
  53 H53            8.1982     1.2647    -2.8600 H       
  54 H54            9.6932     0.3856    -1.1139 H       
  55 H55            8.7713    -0.3506     1.0460 H       
  56 H56            6.3513    -0.2021     1.4686 H       
@<TRIPOS>BOND
   1    1    2 ar
   2    1    6 ar
   3    1   36 1
   4    2    3 ar
   5    2   11 1
   6    3    4 ar
   7    3   37 1
   8    4    5 ar
   9    4    7 1
  10    5    6 ar
  11    5    9 1
  12    6   38 1
  13    7    8 1
  14    7   30 1
  15    8    9 am
  16    8   25 1
  17    9   10 2
  18   11   12 1
  19   12   13 1
  20   12   39 1
  21   12   40 1
  22   13   14 ar
  23   13   18 ar
  24   14   15 ar
  25   14   41 1
  26   15   16 ar
  27   15   19 1
  28   16   17 ar
  29   16   42 1
  30   17   18 ar
  31   17   43 1
  32   18   44 1
  33   19   20 ar
  34   19   24 ar
  35   20   21 ar
  36   20   45 1
  37   21   22 ar
  38   21   46 1
  39   22   23 ar
  40   22   26 1
  41   23   24 ar
  42   23   27 1
  43   24   47 1
  44   25   31 ar
  45   25   35 ar
  46   27   28 1
  47   27   29 2
  48   28   48 1
  49   30   49 1
  50   30   50 1
  51   30   51 1
  52   31   32 ar
  53   31   52 1
  54   32   33 ar
  55   32   53 1
  56   33   34 ar
  57   33   54 1
  58   34   35 ar
  59   34   55 1
  60   35   56 1

#	End of record

