#	Name: ASD00431215
#	Creating user name:	WinNT
#	Creation time:	15. 06. 2019 18:35

#	Modifying user name:	WinNT
#	Modification time:	15. 06. 2019 18:35

#	Program:	/corina/corina34_cracker 3.40 0067  02.08.2006

@<TRIPOS>MOLECULE
ASD00431215
  52   54    0    0    0
SMALL
NO_CHARGES


@<TRIPOS>ATOM
   1 C1            -0.3762     1.6952    -0.6370 C.2     
   2 C2            -0.5777     0.2421    -0.9822 C.3     
   3 O3             0.7299     2.1030    -0.3520 O.2     
   4 N4            -1.4241     2.5425    -0.6502 N.am    
   5 C5            -1.2283     3.9551    -0.3146 C.3     
   6 C6            -0.7828     4.7189    -1.5632 C.3     
   7 O7            -3.7518     4.2887    -0.2840 O.3     
   8 N8            -4.6021     4.8970     0.3234 N.2     
   9 C9            -4.0763     5.6266     1.2799 C.2     
  10 C10           -2.6700     5.4033     1.2182 C.2     
  11 C11           -2.5231     4.5348     0.1937 C.2     
  12 S12           -4.0646     7.4725     3.5027 S.3     
  13 C13           -5.6069     8.0457     3.9662 C.2     
  14 N14           -6.5255     7.5289     3.2096 N.2     
  15 C15           -6.1305     6.6991     2.2692 C.2     
  16 C16           -4.7961     6.5017     2.2273 C.2     
  17 O17           -5.8371     8.9149     4.9790 O.3     
  18 C18           -7.1279     9.1957     5.2978 C.ar    
  19 C19           -7.8814     8.2771     6.0123 C.ar    
  20 C20           -9.1993     8.5673     6.3366 C.ar    
  21 C21           -9.7592     9.7773     5.9442 C.ar    
  22 C22           -9.0051    10.6896     5.2325 C.ar    
  23 C23           -7.6909    10.4046     4.9132 C.ar    
  24 N24           -9.9619     7.6444     7.0559 N.pl3   
  25 C25          -11.3529     7.9517     7.3977 C.3     
  26 C26          -11.9559     6.7834     8.1803 C.3     
  27 C27          -11.2321     6.6396     9.5205 C.3     
  28 C28          -13.4420     7.0492     8.4291 C.3     
  29 H29            0.3766    -0.2812    -0.9226 H       
  30 H30           -1.2813    -0.2041    -0.2794 H       
  31 H31           -0.9741     0.1608    -1.9943 H       
  32 H32           -2.3081     2.2172    -0.8819 H       
  33 H33           -0.4634     4.0425     0.4570 H       
  34 H34           -1.5477     4.6315    -2.3348 H       
  35 H35           -0.6370     5.7699    -1.3135 H       
  36 H36            0.1538     4.2996    -1.9308 H       
  37 H37           -1.9005     5.8298     1.8446 H       
  38 H38           -6.8158     6.2163     1.5882 H       
  39 H39           -7.4438     7.3375     6.3157 H       
  40 H40          -10.7847    10.0041     6.1957 H       
  41 H41           -9.4419    11.6294     4.9285 H       
  42 H42           -7.1025    11.1220     4.3605 H       
  43 H43           -9.5705     6.8000     7.3292 H       
  44 H44          -11.3862     8.8539     8.0086 H       
  45 H45          -11.9251     8.1106     6.4837 H       
  46 H46          -11.8425     5.8642     7.6056 H       
  47 H47          -11.6616     5.8073    10.0780 H       
  48 H48          -10.1734     6.4503     9.3432 H       
  49 H49          -11.3455     7.5589    10.0952 H       
  50 H50          -13.9576     7.1516     7.4743 H       
  51 H51          -13.8715     6.2168     8.9866 H       
  52 H52          -13.5554     7.9684     9.0038 H       
@<TRIPOS>BOND
   1    1    2 1
   2    1    3 2
   3    1    4 am
   4    2   29 1
   5    2   30 1
   6    2   31 1
   7    4    5 1
   8    4   32 1
   9    5    6 1
  10    5   11 1
  11    5   33 1
  12    6   34 1
  13    6   35 1
  14    6   36 1
  15    7    8 1
  16    7   11 1
  17    8    9 2
  18    9   10 1
  19    9   16 1
  20   10   11 2
  21   10   37 1
  22   12   13 1
  23   12   16 1
  24   13   14 2
  25   13   17 1
  26   14   15 1
  27   15   16 2
  28   15   38 1
  29   17   18 1
  30   18   19 ar
  31   18   23 ar
  32   19   20 ar
  33   19   39 1
  34   20   21 ar
  35   20   24 1
  36   21   22 ar
  37   21   40 1
  38   22   23 ar
  39   22   41 1
  40   23   42 1
  41   24   25 1
  42   24   43 1
  43   25   26 1
  44   25   44 1
  45   25   45 1
  46   26   27 1
  47   26   28 1
  48   26   46 1
  49   27   47 1
  50   27   48 1
  51   27   49 1
  52   28   50 1
  53   28   51 1
  54   28   52 1

#	End of record

