#	Name: ASD00100099
#	Creating user name:	WinNT
#	Creation time:	15. 06. 2019 18:30

#	Modifying user name:	WinNT
#	Modification time:	15. 06. 2019 18:30

#	Program:	/corina/corina34_cracker 3.40 0067  02.08.2006

@<TRIPOS>MOLECULE
ASD00100099
  39   41    0    0    0
SMALL
NO_CHARGES


@<TRIPOS>ATOM
   1 N1            -0.0178     1.4648     0.0101 N.3     
   2 N2            -1.5139    -1.2754    -1.1698 N.2     
   3 N3            -1.3701    -0.5392     0.0122 N.pl3   
   4 C4             0.0021    -0.0041     0.0020 C.3     
   5 N5             0.5702    -0.5059    -1.2606 N.pl3   
   6 C6            -0.4317    -1.2546    -1.8757 C.2     
   7 C7            -0.2756    -1.9405    -3.1760 C.ar    
   8 C8            -1.3368    -2.6688    -3.7162 C.ar    
   9 C9            -1.1846    -3.3061    -4.9302 C.ar    
  10 C10            0.0167    -3.2249    -5.6119 C.ar    
  11 C11            1.0727    -2.5050    -5.0818 C.ar    
  12 C12            0.9317    -1.8578    -3.8716 C.ar    
  13 C13           -2.3828    -0.3404     1.0520 C.3     
  14 C14           -3.1896     0.8932     0.7380 C.ar    
  15 C15           -4.2123     0.8344    -0.1979 C.ar    
  16 C16           -4.9530     1.9716    -0.4847 C.ar    
  17 C17           -4.6709     3.1596     0.1618 C.ar    
  18 C18           -3.6512     3.2157     1.0935 C.ar    
  19 C19           -2.9153     2.0819     1.3857 C.ar    
  20 O20           -4.4875    -0.3352    -0.8328 O.3     
  21 C21           -5.5539    -0.3218    -1.7839 C.3     
  22 H22            0.9191     1.8392     0.0032 H       
  23 H23           -0.5563     1.8234    -0.7642 H       
  24 H24            0.5662    -0.3824     0.8545 H       
  25 H25            1.4656    -0.3464    -1.5979 H       
  26 H26           -2.2747    -2.7336    -3.1847 H       
  27 H27           -2.0048    -3.8700    -5.3493 H       
  28 H28            0.1308    -3.7260    -6.5618 H       
  29 H29            2.0080    -2.4461    -5.6185 H       
  30 H30            1.7551    -1.2922    -3.4612 H       
  31 H31           -3.0429    -1.2071     1.0868 H       
  32 H32           -1.8927    -0.2179     2.0178 H       
  33 H33           -5.7493     1.9284    -1.2130 H       
  34 H34           -5.2473     4.0453    -0.0612 H       
  35 H35           -3.4318     4.1454     1.5973 H       
  36 H36           -2.1223     2.1271     2.1175 H       
  37 H37           -6.4802    -0.0333    -1.2871 H       
  38 H38           -5.3271     0.3940    -2.5740 H       
  39 H39           -5.6678    -1.3160    -2.2161 H       
@<TRIPOS>BOND
   1    1    4 1
   2    1   22 1
   3    1   23 1
   4    2    3 1
   5    2    6 2
   6    3    4 1
   7    3   13 1
   8    4    5 1
   9    4   24 1
  10    5    6 1
  11    5   25 1
  12    6    7 1
  13    7    8 ar
  14    7   12 ar
  15    8    9 ar
  16    8   26 1
  17    9   10 ar
  18    9   27 1
  19   10   11 ar
  20   10   28 1
  21   11   12 ar
  22   11   29 1
  23   12   30 1
  24   13   14 1
  25   13   31 1
  26   13   32 1
  27   14   15 ar
  28   14   19 ar
  29   15   16 ar
  30   15   20 1
  31   16   17 ar
  32   16   33 1
  33   17   18 ar
  34   17   34 1
  35   18   19 ar
  36   18   35 1
  37   19   36 1
  38   20   21 1
  39   21   37 1
  40   21   38 1
  41   21   39 1

#	End of record

