#	Name: ASD02039481
#	Creating user name:	WinNT
#	Creation time:	15. 06. 2019 20:18

#	Modifying user name:	WinNT
#	Modification time:	15. 06. 2019 20:18

#	Program:	/corina/corina34_cracker 3.40 0067  02.08.2006

@<TRIPOS>MOLECULE
ASD02039481
  51   53    0    0    0
SMALL
NO_CHARGES


@<TRIPOS>ATOM
   1 C1             0.1044     1.2093     0.1080 C.ar    
   2 C2             0.2871    -0.1659     0.1476 C.ar    
   3 C3             1.2868     2.1434     0.0961 C.3     
   4 N4             1.7678     2.3048    -1.2783 N.am    
   5 C5             1.3588     3.3557    -2.0164 C.2     
   6 C6             0.3395     4.2771    -1.4847 C.2     
   7 C7            -0.2368     5.3159    -2.1554 C.2     
   8 N8            -0.2017     4.2433    -0.2402 N.2     
   9 C9            -1.0666     5.2100    -0.1309 C.2     
  10 N10           -1.1133     5.8963    -1.3024 N.pl3   
  11 O11            1.8312     3.5435    -3.1213 O.2     
  12 C12           -1.9597     7.0568    -1.5906 C.3     
  13 C13            2.6934     1.3239    -1.8504 C.3     
  14 C14           -0.8178    -0.9970     0.1577 C.ar    
  15 N15           -2.0380    -0.5006     0.1298 N.ar    
  16 C16           -2.2558     0.8081     0.0916 C.ar    
  17 C17           -1.1879     1.7034     0.0740 C.ar    
  18 C18           -3.6461     1.3214     0.0608 C.ar    
  19 C19           -4.7196     0.4309     0.0719 C.ar    
  20 C20           -6.0112     0.9099     0.0432 C.ar    
  21 C21           -6.2449     2.2808     0.0031 C.ar    
  22 C22           -5.1754     3.1706    -0.0081 C.ar    
  23 C23           -3.8825     2.6956     0.0264 C.ar    
  24 S24           -7.8975     2.8909    -0.0342 S.3     
  25 C25            2.0918     0.7414    -3.1309 C.3     
  26 C26            4.0231     2.0070    -2.1764 C.3     
  27 C27           -7.6674     4.6897    -0.0801 C.3     
  28 F28           -6.9399     5.0377    -1.2232 F       
  29 F29           -8.9165     5.3188    -0.1128 F       
  30 F30           -6.9685     5.0997     1.0603 F       
  31 H31            1.2831    -0.5830     0.1700 H       
  32 H32            0.9874     3.1136     0.4925 H       
  33 H33            2.0837     1.7288     0.7135 H       
  34 H34           -0.0326     5.6178    -3.1720 H       
  35 H35           -1.6544     5.4292     0.7482 H       
  36 H36           -1.4271     7.9699    -1.3250 H       
  37 H37           -2.2031     7.0740    -2.6530 H       
  38 H38           -2.8788     6.9897    -1.0084 H       
  39 H39            2.8634     0.5224    -1.1315 H       
  40 H40           -0.6788    -2.0675     0.1884 H       
  41 H41           -1.3664     2.7681     0.0429 H       
  42 H42           -4.5386    -0.6334     0.1027 H       
  43 H43           -6.8426     0.2207     0.0514 H       
  44 H44           -5.3588     4.2344    -0.0396 H       
  45 H45           -3.0526     3.3866     0.0177 H       
  46 H46            1.8487     1.5509    -3.8191 H       
  47 H47            2.8128     0.0710    -3.5987 H       
  48 H48            1.1854     0.1872    -2.8871 H       
  49 H49            4.4927     2.3470    -1.2534 H       
  50 H50            4.6815     1.2989    -2.6797 H       
  51 H51            3.8422     2.8616    -2.8284 H       
@<TRIPOS>BOND
   1    1    2 ar
   2    1    3 1
   3    1   17 ar
   4    2   14 ar
   5    2   31 1
   6    3    4 1
   7    3   32 1
   8    3   33 1
   9    4    5 am
  10    4   13 1
  11    5    6 1
  12    5   11 2
  13    6    7 2
  14    6    8 1
  15    7   10 1
  16    7   34 1
  17    8    9 2
  18    9   10 1
  19    9   35 1
  20   10   12 1
  21   12   36 1
  22   12   37 1
  23   12   38 1
  24   13   25 1
  25   13   26 1
  26   13   39 1
  27   14   15 ar
  28   14   40 1
  29   15   16 ar
  30   16   17 ar
  31   16   18 1
  32   17   41 1
  33   18   19 ar
  34   18   23 ar
  35   19   20 ar
  36   19   42 1
  37   20   21 ar
  38   20   43 1
  39   21   22 ar
  40   21   24 1
  41   22   23 ar
  42   22   44 1
  43   23   45 1
  44   24   27 1
  45   25   46 1
  46   25   47 1
  47   25   48 1
  48   26   49 1
  49   26   50 1
  50   26   51 1
  51   27   28 1
  52   27   29 1
  53   27   30 1

#	End of record

