#	Name: ASD01001069
#	Creating user name:	WinNT
#	Creation time:	15. 06. 2019 18:55

#	Modifying user name:	WinNT
#	Modification time:	15. 06. 2019 18:55

#	Program:	/corina/corina34_cracker 3.40 0067  02.08.2006

@<TRIPOS>MOLECULE
ASD01001069
  36   38    0    0    0
SMALL
NO_CHARGES


@<TRIPOS>ATOM
   1 C1            -0.0166     1.3748     0.0096 C.ar    
   2 C2             0.0021    -0.0041     0.0020 C.ar    
   3 C3             1.1852     2.0869     0.0019 C.ar    
   4 C4             1.2075    -0.6842    -0.0127 C.ar    
   5 C5             2.4003     1.3940    -0.0134 C.ar    
   6 C6             1.1730     3.5612     0.0095 C.2     
   7 C7             2.4024     0.0119    -0.0204 C.ar    
   8 N8             2.2189     4.3132     0.0031 N.2     
   9 N9             1.9388     5.6781     0.0127 N.am    
  10 C10            0.4791     5.8642     0.0279 C.3     
  11 C11           -0.0691     4.4234     0.0194 C.3     
  12 C12            2.8551     6.6665     0.0094 C.2     
  13 C13            0.0504     6.5930     1.2753 C.ar    
  14 C14           -0.9589     7.5356     1.2127 C.ar    
  15 C15           -1.3522     8.2042     2.3569 C.ar    
  16 C16           -0.7365     7.9300     3.5638 C.ar    
  17 C17            0.2722     6.9868     3.6265 C.ar    
  18 C18            0.6625     6.3151     2.4831 C.ar    
  19 C19            4.3243     6.3318    -0.0064 C.3     
  20 O20            2.4971     7.8255     0.0191 O.2     
  21 F21            3.5679     2.0735    -0.0204 F       
  22 H22           -0.9585     1.9032     0.0169 H       
  23 H23           -0.9268    -0.5550     0.0079 H       
  24 H24            1.2149    -1.7642    -0.0178 H       
  25 H25            3.3391    -0.5256    -0.0315 H       
  26 H26            0.1514     6.4004    -0.8627 H       
  27 H27           -0.6702     4.2482    -0.8728 H       
  28 H28           -0.6536     4.2314     0.9192 H       
  29 H29           -1.4400     7.7498     0.2698 H       
  30 H30           -2.1402     8.9410     2.3078 H       
  31 H31           -1.0432     8.4528     4.4576 H       
  32 H32            0.7535     6.7728     4.5694 H       
  33 H33            1.4505     5.5782     2.5322 H       
  34 H34            4.4503     5.2491    -0.0135 H       
  35 H35            4.7843     6.7569    -0.8985 H       
  36 H36            4.8012     6.7472     0.8814 H       
@<TRIPOS>BOND
   1    1    2 ar
   2    1    3 ar
   3    1   22 1
   4    2    4 ar
   5    2   23 1
   6    3    6 1
   7    3    5 ar
   8    4    7 ar
   9    4   24 1
  10    5   21 1
  11    5    7 ar
  12    6    8 2
  13    6   11 1
  14    7   25 1
  15    8    9 1
  16    9   10 1
  17    9   12 am
  18   10   11 1
  19   10   13 1
  20   10   26 1
  21   11   27 1
  22   11   28 1
  23   12   19 1
  24   12   20 2
  25   13   14 ar
  26   13   18 ar
  27   14   15 ar
  28   14   29 1
  29   15   16 ar
  30   15   30 1
  31   16   17 ar
  32   16   31 1
  33   17   18 ar
  34   17   32 1
  35   18   33 1
  36   19   34 1
  37   19   35 1
  38   19   36 1

#	End of record

