#	Name: ASD01813628
#	Creating user name:	WinNT
#	Creation time:	15. 06. 2019 19:30

#	Modifying user name:	WinNT
#	Modification time:	15. 06. 2019 19:30

#	Program:	/corina/corina34_cracker 3.40 0067  02.08.2006

@<TRIPOS>MOLECULE
ASD01813628
  48   52    0    0    0
SMALL
NO_CHARGES


@<TRIPOS>ATOM
   1 C1             0.0980     1.4755     0.3559 C.ar    
   2 C2             0.0799     0.0883     0.3481 C.ar    
   3 C3             1.2501    -0.6306     0.2175 C.ar    
   4 C4             2.4672     0.0383     0.0917 C.ar    
   5 C5             2.4807     1.4430     0.1000 C.ar    
   6 C6             1.2892     2.1560     0.2329 C.ar    
   7 N7             3.6443    -0.6677    -0.0386 N.pl3   
   8 C8             4.8374    -0.0728    -0.1610 C.2     
   9 C9             4.9774     1.3006    -0.1658 C.2     
  10 C10            3.7746     2.1383    -0.0339 C.2     
  11 O11            3.8449     3.3548    -0.0328 O.2     
  12 C12            6.3053     1.9158    -0.3014 C.2     
  13 O13            6.4291     3.2582    -0.3047 O.3     
  14 O14            7.2920     1.2142    -0.4105 O.2     
  15 C15            3.5871    -2.1316    -0.0427 C.3     
  16 C16            3.4445    -2.6248    -1.4595 C.ar    
  17 C17            4.5600    -2.7693    -2.2638 C.ar    
  18 N18            4.4485    -3.1995    -3.5041 N.ar    
  19 C19            3.2705    -3.5101    -4.0292 C.ar    
  20 C20            2.1049    -3.3888    -3.2753 C.ar    
  21 C21            2.1931    -2.9437    -1.9677 C.ar    
  22 F22            1.2170    -1.9812     0.2121 F       
  23 C23            3.1935    -3.9901    -5.4305 C.ar    
  24 C24            1.9396    -4.2180    -6.0193 C.ar    
  25 C25            1.8438    -4.6582    -7.3013 C.ar    
  26 C26            3.0085    -4.8895    -8.0522 C.ar    
  27 C27            4.2811    -4.6630    -7.4702 C.ar    
  28 C28            4.3570    -4.2033    -6.1459 C.ar    
  29 C29            2.9392    -5.3460    -9.3820 C.ar    
  30 C30            4.1095    -5.5513   -10.0558 C.ar    
  31 C31            5.3277    -5.3089    -9.4242 C.ar    
  32 N32            5.3894    -4.8843    -8.1857 N.ar    
  33 H33           -0.8269     2.0244     0.4545 H       
  34 H34           -0.8601    -0.4344     0.4457 H       
  35 H35            1.3006     3.2359     0.2389 H       
  36 H36            5.7198    -0.6878    -0.2588 H       
  37 H37            7.3226     3.6164    -0.3964 H       
  38 H38            4.5033    -2.5323     0.3911 H       
  39 H39            2.7314    -2.4634     0.5453 H       
  40 H40            5.5357    -2.5258    -1.8701 H       
  41 H41            1.1466    -3.6421    -3.7041 H       
  42 H42            1.3071    -2.8396    -1.3590 H       
  43 H43            1.0410    -4.0418    -5.4468 H       
  44 H44            0.8731    -4.8303    -7.7424 H       
  45 H45            5.3180    -4.0253    -5.6865 H       
  46 H46            1.9865    -5.5293    -9.8565 H       
  47 H47            4.0907    -5.9016   -11.0772 H       
  48 H48            6.2450    -5.4756    -9.9693 H       
@<TRIPOS>BOND
   1    1    2 ar
   2    1    6 ar
   3    1   33 1
   4    2    3 ar
   5    2   34 1
   6    3    4 ar
   7    3   22 1
   8    4    5 ar
   9    4    7 1
  10    5    6 ar
  11    5   10 1
  12    6   35 1
  13    7    8 1
  14    7   15 1
  15    8    9 2
  16    8   36 1
  17    9   10 1
  18    9   12 1
  19   10   11 2
  20   12   13 1
  21   12   14 2
  22   13   37 1
  23   15   16 1
  24   15   38 1
  25   15   39 1
  26   16   17 ar
  27   16   21 ar
  28   17   18 ar
  29   17   40 1
  30   18   19 ar
  31   19   20 ar
  32   19   23 1
  33   20   21 ar
  34   20   41 1
  35   21   42 1
  36   23   24 ar
  37   23   28 ar
  38   24   25 ar
  39   24   43 1
  40   25   26 ar
  41   25   44 1
  42   26   27 ar
  43   26   29 ar
  44   27   28 ar
  45   27   32 ar
  46   28   45 1
  47   29   30 ar
  48   29   46 1
  49   30   31 ar
  50   30   47 1
  51   31   32 ar
  52   31   48 1

#	End of record

