#	Name: ASD03091022
#	Creating user name:	WinNT
#	Creation time:	15. 06. 2019 20:29

#	Modifying user name:	WinNT
#	Modification time:	15. 06. 2019 20:29

#	Program:	/corina/corina34_cracker 3.40 0067  02.08.2006

@<TRIPOS>MOLECULE
ASD03091022
  52   56    0    0    0
SMALL
NO_CHARGES


@<TRIPOS>ATOM
   1 N1            -0.1827     1.2844    -0.3858 N.am    
   2 C2            -0.0262    -0.0495    -0.0528 C.2     
   3 N3            -0.7923    -0.6727     0.7853 N.2     
   4 C4            -1.8455    -0.1599     1.4755 C.ar    
   5 C5            -2.4242     1.0610     1.1042 C.ar    
   6 S6            -1.7325     1.9009    -0.2858 S.o2    
   7 O7            -1.6164     3.2710     0.0728 O.2     
   8 C8            -2.3719    -0.8470     2.5750 C.ar    
   9 C9            -3.4388    -0.3212     3.2699 C.ar    
  10 C10           -4.0017     0.8916     2.8894 C.ar    
  11 C11           -3.4851     1.5833     1.7965 C.ar    
  12 N12           -5.0842     1.4156     3.6018 N.3     
  13 C13           -6.3596     1.0199     2.9882 C.3     
  14 C14           -4.9898     2.8768     3.7026 C.3     
  15 C15           -6.0392     3.4622     4.6347 C.3     
  16 N16           -7.3931     3.1942     4.1263 N.3     
  17 C17           -7.5535     3.2175     2.6882 C.3     
  18 C18           -6.7932     2.0923     2.0057 C.3     
  19 C19           -7.3965     0.7258     4.0620 C.3     
  20 C20           -7.9282     1.9713     4.7420 C.3     
  21 C21            1.0742    -0.8042    -0.6882 C.ar    
  22 C22            1.5298    -1.9935    -0.1169 C.ar    
  23 C23            2.5576    -2.6936    -0.7147 C.ar    
  24 C24            3.1367    -2.2198    -1.8780 C.ar    
  25 C25            2.6899    -1.0406    -2.4506 C.ar    
  26 C26            1.6585    -0.3336    -1.8656 C.ar    
  27 Cl27           3.4237    -0.4539    -3.9104 Cl      
  28 C28            0.9520     2.1142    -0.7985 C.3     
  29 O29           -2.4288     1.4424    -1.4365 O.2     
  30 H30           -1.9417    -1.7899     2.8788 H       
  31 H31           -3.8417    -0.8560     4.1173 H       
  32 H32           -3.9181     2.5261     1.4964 H       
  33 H33           -6.1911     0.1046     2.4207 H       
  34 H34           -4.0001     3.1419     4.0744 H       
  35 H35           -5.1192     3.3082     2.7100 H       
  36 H36           -5.9315     3.0148     5.6228 H       
  37 H37           -5.8910     4.5394     4.7109 H       
  38 H38           -8.6128     3.1241     2.4491 H       
  39 H39           -7.1897     4.1718     2.3074 H       
  40 H40           -5.9094     2.5058     1.5197 H       
  41 H41           -7.4335     1.6407     1.2480 H       
  42 H42           -8.2311     0.1936     3.6055 H       
  43 H43           -6.9453     0.0814     4.8164 H       
  44 H44           -7.6460     1.9501     5.7946 H       
  45 H45           -9.0155     1.9814     4.6665 H       
  46 H46            1.0790    -2.3647     0.7916 H       
  47 H47            2.9109    -3.6137    -0.2730 H       
  48 H48            3.9411    -2.7716    -2.3415 H       
  49 H49            1.3106     0.5859    -2.3126 H       
  50 H50            1.8753     1.5440    -0.6963 H       
  51 H51            0.8235     2.4143    -1.8385 H       
  52 H52            1.0014     3.0018    -0.1677 H       
@<TRIPOS>BOND
   1    1    2 1
   2    1   28 1
   3    1    6 am
   4    2    3 2
   5    2   21 1
   6    3    4 1
   7    4    5 ar
   8    4    8 ar
   9    5    6 1
  10    5   11 ar
  11    6    7 2
  12    6   29 2
  13    8    9 ar
  14    8   30 1
  15    9   10 ar
  16    9   31 1
  17   10   11 ar
  18   10   12 1
  19   11   32 1
  20   12   14 1
  21   12   13 1
  22   13   19 1
  23   13   18 1
  24   13   33 1
  25   14   15 1
  26   14   34 1
  27   14   35 1
  28   15   16 1
  29   15   36 1
  30   15   37 1
  31   16   17 1
  32   16   20 1
  33   17   18 1
  34   17   38 1
  35   17   39 1
  36   18   40 1
  37   18   41 1
  38   19   20 1
  39   19   42 1
  40   19   43 1
  41   20   44 1
  42   20   45 1
  43   21   22 ar
  44   21   26 ar
  45   22   23 ar
  46   22   46 1
  47   23   24 ar
  48   23   47 1
  49   24   25 ar
  50   24   48 1
  51   25   26 ar
  52   25   27 1
  53   26   49 1
  54   28   50 1
  55   28   51 1
  56   28   52 1

#	End of record

