#	Name: ASD01883699
#	Creating user name:	WinNT
#	Creation time:	15. 06. 2019 19:46

#	Modifying user name:	WinNT
#	Modification time:	15. 06. 2019 19:46

#	Program:	/corina/corina34_cracker 3.40 0067  02.08.2006

@<TRIPOS>MOLECULE
ASD01883699
  48   51    0    0    0
SMALL
NO_CHARGES


@<TRIPOS>ATOM
   1 C1            -0.0169     1.3984     0.0097 C.2     
   2 C2             0.0021    -0.0041     0.0020 C.2     
   3 C3            -1.2223    -0.7047     0.0099 C.2     
   4 C4            -2.3969    -0.0475     0.0246 C.2     
   5 N5            -2.4615     1.3157     0.0325 N.pl3   
   6 C6            -1.3172     2.0717     0.0319 C.2     
   7 C7            -3.5157     2.1918     0.0473 C.2     
   8 C8            -2.9979     3.4382     0.0490 C.2     
   9 N9            -1.6639     3.3462     0.0405 N.2     
  10 C10           -4.9788     1.8308     0.0592 C.3     
  11 C11           -5.5177     1.8384    -1.3727 C.3     
  12 C12            1.2855    -0.7368    -0.0146 C.ar    
  13 C13            1.6507    -1.5331     1.0730 C.ar    
  14 C14            2.8473    -2.2155     1.0549 C.ar    
  15 C15            3.6922    -2.1119    -0.0448 C.ar    
  16 C16            3.3317    -1.3185    -1.1309 C.ar    
  17 C17            2.1332    -0.6387    -1.1210 C.ar    
  18 F18           -4.8135     0.9052    -2.1410 F       
  19 F19           -6.8760     1.5034    -1.3615 F       
  20 F20           -5.3565     3.1137    -1.9248 F       
  21 N21            4.9027    -2.8034    -0.0598 N.pl3   
  22 C22            5.2836    -3.6381     1.0823 C.3     
  23 C23            6.2554    -4.7277     0.6190 C.3     
  24 C24            6.7088    -5.5453     1.8314 C.3     
  25 O25            7.3121    -4.6760     2.7918 O.3     
  26 C26            6.4360    -3.6659     3.2961 C.3     
  27 C27            5.9717    -2.7728     2.1426 C.3     
  28 Cl28           4.3896    -1.1915    -2.5014 Cl      
  29 C29            1.2014     2.1509     0.0021 C.1     
  30 N30            2.1678     2.7479    -0.0039 N.1     
  31 H31           -1.2171    -1.7847     0.0037 H       
  32 H32           -3.3154    -0.6157     0.0299 H       
  33 H33           -3.5661     4.3566     0.0590 H       
  34 H34           -5.1044     0.8372     0.4895 H       
  35 H35           -5.5275     2.5580     0.6578 H       
  36 H36            0.9956    -1.6137     1.9279 H       
  37 H37            3.1298    -2.8314     1.8959 H       
  38 H38            1.8536    -0.0236    -1.9635 H       
  39 H39            5.4927    -2.7318    -0.8264 H       
  40 H40            4.3935    -4.1007     1.5088 H       
  41 H41            5.7555    -5.3820    -0.0952 H       
  42 H42            7.1222    -4.2658     0.1464 H       
  43 H43            5.8468    -6.0396     2.2794 H       
  44 H44            7.4335    -6.2950     1.5138 H       
  45 H45            5.5705    -4.1356     3.7633 H       
  46 H46            6.9642    -3.0617     4.0336 H       
  47 H47            6.8327    -2.2714     1.7007 H       
  48 H48            5.2689    -2.0290     2.5179 H       
@<TRIPOS>BOND
   1    1    2 2
   2    1   29 1
   3    1    6 1
   4    2    3 1
   5    2   12 1
   6    3    4 2
   7    3   31 1
   8    4    5 1
   9    4   32 1
  10    5    6 1
  11    5    7 1
  12    6    9 2
  13    7    8 2
  14    7   10 1
  15    8    9 1
  16    8   33 1
  17   10   11 1
  18   10   34 1
  19   10   35 1
  20   11   18 1
  21   11   19 1
  22   11   20 1
  23   12   13 ar
  24   12   17 ar
  25   13   14 ar
  26   13   36 1
  27   14   15 ar
  28   14   37 1
  29   15   16 ar
  30   15   21 1
  31   16   17 ar
  32   16   28 1
  33   17   38 1
  34   21   22 1
  35   21   39 1
  36   22   23 1
  37   22   27 1
  38   22   40 1
  39   23   24 1
  40   23   41 1
  41   23   42 1
  42   24   25 1
  43   24   43 1
  44   24   44 1
  45   25   26 1
  46   26   27 1
  47   26   45 1
  48   26   46 1
  49   27   47 1
  50   27   48 1
  51   29   30 3

#	End of record

