#	Name: ASD01209147
#	Creating user name:	WinNT
#	Creation time:	15. 06. 2019 19:11

#	Modifying user name:	WinNT
#	Modification time:	15. 06. 2019 19:11

#	Program:	/corina/corina34_cracker 3.40 0067  02.08.2006

@<TRIPOS>MOLECULE
ASD01209147
  65   66    0    0    0
SMALL
NO_CHARGES


@<TRIPOS>ATOM
   1 C1            -0.0410     1.5866     0.2553 C.ar    
   2 C2            -0.1243     0.2035     0.2101 C.ar    
   3 C3             1.0132    -0.5658     0.4100 C.ar    
   4 C4             2.2281     0.0456     0.6540 C.ar    
   5 C5             2.3136     1.4240     0.6996 C.ar    
   6 C6             1.1790     2.1977     0.5003 C.ar    
   7 O7             1.2639     3.5533     0.5448 O.3     
   8 C8             2.5691     4.1173     0.6874 C.3     
   9 O9            -1.3189    -0.3984    -0.0294 O.3     
  10 C10           -1.3545    -1.8246     0.0514 C.3     
  11 C11            4.1385    -1.0424    -0.4517 C.2     
  12 N12            5.2693    -1.7740    -0.5026 N.am    
  13 O13            3.6657    -0.5852    -1.4708 O.2     
  14 C14            5.8935    -2.0047    -1.7229 C.2     
  15 P15            8.2724    -5.3135    -3.7875 P.3     
  16 O16            7.2440    -5.3741    -4.8501 O.2     
  17 C17            8.6941    -3.5726    -3.4485 C.3     
  18 S18            5.3394    -1.4225    -3.2319 S.3     
  19 N19            6.9836    -2.6879    -1.8818 N.2     
  20 C20            7.4393    -2.8077    -3.1147 C.2     
  21 C21            6.7002    -2.1948    -4.0414 C.2     
  22 O22            7.7002    -5.9979    -2.4472 O.3     
  23 O23            9.5909    -6.1007    -4.2712 O.3     
  24 C24            2.5768     5.5363     0.1154 C.3     
  25 C25            7.1839    -7.3299    -2.4129 C.3     
  26 C26            6.7268    -7.6632    -0.9913 C.3     
  27 C27            9.5680    -7.4595    -4.7129 C.3     
  28 C28           10.9835    -7.8946    -5.0977 C.3     
  29 C29           -2.7804    -2.2823     0.3648 C.3     
  30 C30            2.9459     4.1628     2.1696 C.3     
  31 C31           -0.9091    -2.4224    -1.2848 C.3     
  32 C32            3.4617    -0.7923     0.8713 C.3     
  33 H33           -0.9244     2.1872     0.0956 H       
  34 H34            0.9488    -1.6433     0.3752 H       
  35 H35            3.2643     1.8995     0.8905 H       
  36 H36            3.2908     3.5041     0.1477 H       
  37 H37           -0.6831    -2.1607     0.8415 H       
  38 H38            5.6474    -2.1396     0.3124 H       
  39 H39            9.3845    -3.5233    -2.6065 H       
  40 H40            9.1633    -3.1343    -4.3293 H       
  41 H41            6.9025    -2.1735    -5.1021 H       
  42 H42            1.8551     6.1495     0.6551 H       
  43 H43            3.5724     5.9665     0.2242 H       
  44 H44            2.3083     5.5039    -0.9405 H       
  45 H45            6.3372    -7.4090    -3.0947 H       
  46 H46            7.9624    -8.0293    -2.7176 H       
  47 H47            6.3330    -8.6792    -0.9651 H       
  48 H48            7.5735    -7.5840    -0.3095 H       
  49 H49            5.9483    -6.9638    -0.6866 H       
  50 H50            9.1979    -8.0965    -3.9095 H       
  51 H51            8.9123    -7.5491    -5.5789 H       
  52 H52           11.6392    -7.8051    -4.2316 H       
  53 H53           10.9660    -8.9311    -5.4346 H       
  54 H54           11.3536    -7.2577    -5.9011 H       
  55 H55           -3.4518    -1.9463    -0.4253 H       
  56 H56           -2.8075    -3.3702     0.4264 H       
  57 H57           -3.0977    -1.8565     1.3167 H       
  58 H58            3.9415     4.5930     2.2783 H       
  59 H59            2.2242     4.7760     2.7093 H       
  60 H60            2.9404     3.1518     2.5770 H       
  61 H61           -1.5806    -2.0864    -2.0749 H       
  62 H62            0.1067    -2.0963    -1.5081 H       
  63 H63           -0.9363    -3.5103    -1.2232 H       
  64 H64            4.1464    -0.2653     1.5358 H       
  65 H65            3.1797    -1.7443     1.3209 H       
@<TRIPOS>BOND
   1    1    2 ar
   2    1    6 ar
   3    1   33 1
   4    2    3 ar
   5    2    9 1
   6    3    4 ar
   7    3   34 1
   8    4    5 ar
   9    4   32 1
  10    5    6 ar
  11    5   35 1
  12    6    7 1
  13    7    8 1
  14    8   24 1
  15    8   30 1
  16    8   36 1
  17    9   10 1
  18   10   29 1
  19   10   31 1
  20   10   37 1
  21   11   12 am
  22   11   13 2
  23   11   32 1
  24   12   14 1
  25   12   38 1
  26   14   18 1
  27   14   19 2
  28   15   16 2
  29   15   22 1
  30   15   17 1
  31   15   23 1
  32   17   20 1
  33   17   39 1
  34   17   40 1
  35   18   21 1
  36   19   20 1
  37   20   21 2
  38   21   41 1
  39   22   25 1
  40   23   27 1
  41   24   42 1
  42   24   43 1
  43   24   44 1
  44   25   26 1
  45   25   45 1
  46   25   46 1
  47   26   47 1
  48   26   48 1
  49   26   49 1
  50   27   28 1
  51   27   50 1
  52   27   51 1
  53   28   52 1
  54   28   53 1
  55   28   54 1
  56   29   55 1
  57   29   56 1
  58   29   57 1
  59   30   58 1
  60   30   59 1
  61   30   60 1
  62   31   61 1
  63   31   62 1
  64   31   63 1
  65   32   64 1
  66   32   65 1

#	End of record

