#	Name: ASD01870459
#	Creating user name:	WinNT
#	Creation time:	15. 06. 2019 19:39

#	Modifying user name:	WinNT
#	Modification time:	15. 06. 2019 19:39

#	Program:	/corina/corina34_cracker 3.40 0067  02.08.2006

@<TRIPOS>MOLECULE
ASD01870459
  32   35    0    0    0
SMALL
NO_CHARGES


@<TRIPOS>ATOM
   1 O1            -0.0011     1.3876     0.2634 O.3     
   2 N2             0.0021    -0.0041     0.0020 N.2     
   3 C3            -1.1249    -0.6754     0.0092 C.2     
   4 C4            -1.1594    -2.1444    -0.1011 C.2     
   5 C5            -2.3263    -2.7804     0.1745 C.2     
   6 O6            -3.4378    -2.1272     0.5564 O.3     
   7 C7            -3.5660    -0.7921     0.4018 C.ar    
   8 C8            -4.8100    -0.1848     0.5112 C.ar    
   9 C9            -4.9268     1.1820     0.3562 C.ar    
  10 C10           -3.8130     1.9610     0.0910 C.ar    
  11 C11           -2.5681     1.3741    -0.0240 C.ar    
  12 C12           -2.4420    -0.0006     0.1352 C.ar    
  13 C13           -2.3773    -4.2464     0.0496 C.2     
  14 C14           -3.5545    -4.9245     0.3182 C.2     
  15 C15           -3.5610    -6.3256     0.1869 C.2     
  16 C16           -4.5324    -7.2920     0.3699 C.2     
  17 C17           -3.9407    -8.5262     0.0853 C.2     
  18 C18           -2.6487    -8.3038    -0.2590 C.2     
  19 N19           -2.3981    -6.9664    -0.2029 N.pl3   
  20 C20           -1.2742    -6.2270    -0.4506 C.2     
  21 N21           -1.2734    -4.9337    -0.3338 N.2     
  22 H22            0.8755     1.7949     0.2363 H       
  23 H23           -0.2804    -2.6997    -0.3934 H       
  24 H24           -5.6861    -0.7818     0.7171 H       
  25 H25           -5.8970     1.6485     0.4423 H       
  26 H26           -3.9181     3.0295    -0.0264 H       
  27 H27           -1.6984     1.9799    -0.2316 H       
  28 H28           -4.4441    -4.3920     0.6208 H       
  29 H29           -5.5548    -7.1251     0.6752 H       
  30 H30           -4.4278    -9.4889     0.1322 H       
  31 H31           -1.9331    -9.0648    -0.5332 H       
  32 H32           -0.3680    -6.7300    -0.7543 H       
@<TRIPOS>BOND
   1    1    2 1
   2    1   22 1
   3    2    3 2
   4    3   12 1
   5    3    4 1
   6    4    5 2
   7    4   23 1
   8    5    6 1
   9    5   13 1
  10    6    7 1
  11    7   12 ar
  12    7    8 ar
  13    8    9 ar
  14    8   24 1
  15    9   10 ar
  16    9   25 1
  17   10   11 ar
  18   10   26 1
  19   11   12 ar
  20   11   27 1
  21   13   21 1
  22   13   14 2
  23   14   15 1
  24   14   28 1
  25   15   19 1
  26   15   16 2
  27   16   17 1
  28   16   29 1
  29   17   18 2
  30   17   30 1
  31   18   19 1
  32   18   31 1
  33   19   20 1
  34   20   21 2
  35   20   32 1

#	End of record

