#	Name: ASD01351006
#	Creating user name:	WinNT
#	Creation time:	15. 06. 2019 19:16

#	Modifying user name:	WinNT
#	Modification time:	15. 06. 2019 19:16

#	Program:	/corina/corina34_cracker 3.40 0067  02.08.2006

@<TRIPOS>MOLECULE
ASD01351006
  40   42    0    0    0
SMALL
NO_CHARGES


@<TRIPOS>ATOM
   1 C1            -0.0038     1.4142     0.0911 C.ar    
   2 C2             0.4650     0.7855     1.2300 C.ar    
   3 C3             0.7271     1.3623    -1.0817 C.ar    
   4 C4             1.6655     0.1034     1.1995 C.ar    
   5 C5             1.9281     0.6814    -1.1190 C.ar    
   6 C6             2.4020     0.0492     0.0232 C.ar    
   7 N7             3.6180    -0.6407    -0.0111 N.am    
   8 C8             4.8656     0.1065    -0.1549 C.3     
   9 C9             3.6220    -1.9834     0.0944 C.2     
  10 C10            4.5572     1.4969    -0.7138 C.3     
  11 C11            5.5255     0.2517     1.2178 C.3     
  12 C12            5.8262    -0.6110    -1.0997 C.3     
  13 C13            4.8847    -2.7213    -0.1190 C.ar    
  14 O14            2.5984    -2.5818     0.3627 O.2     
  15 C15            4.5362     0.8910     2.1942 C.3     
  16 C16            5.9715    -2.0540    -0.6941 C.ar    
  17 C17            5.0026    -4.0600     0.2471 C.ar    
  18 C18            7.1628    -2.7205    -0.8823 C.ar    
  19 C19            6.1998    -4.7190     0.0481 C.ar    
  20 C20            7.2762    -4.0511    -0.5167 C.ar    
  21 O21            5.1525     1.0267     3.4763 O.3     
  22 H22           -0.9451     1.9432     0.1164 H       
  23 H23           -0.1080     0.8283     2.1445 H       
  24 H24            0.3581     1.8544    -1.9694 H       
  25 H25            2.0313    -0.3871     2.0895 H       
  26 H26            2.4981     0.6406    -2.0355 H       
  27 H27            3.8084     1.9822    -0.0879 H       
  28 H28            5.4680     2.0957    -0.7213 H       
  29 H29            4.1756     1.4033    -1.7306 H       
  30 H30            5.8164    -0.7317     1.5871 H       
  31 H31            6.4097     0.8833     1.1309 H       
  32 H32            5.4386    -0.5589    -2.1171 H       
  33 H33            6.8011    -0.1250    -1.0613 H       
  34 H34            4.2453     1.8745     1.8250 H       
  35 H35            3.6520     0.2595     2.2812 H       
  36 H36            4.1628    -4.5795     0.6845 H       
  37 H37            8.0076    -2.2053    -1.3152 H       
  38 H38            6.2965    -5.7571     0.3299 H       
  39 H39            8.2114    -4.5706    -0.6651 H       
  40 H40            4.5816     1.4259     4.1470 H       
@<TRIPOS>BOND
   1    1    2 ar
   2    1    3 ar
   3    1   22 1
   4    2    4 ar
   5    2   23 1
   6    3    5 ar
   7    3   24 1
   8    4    6 ar
   9    4   25 1
  10    5    6 ar
  11    5   26 1
  12    6    7 1
  13    7    8 1
  14    7    9 am
  15    8   11 1
  16    8   12 1
  17    8   10 1
  18    9   13 1
  19    9   14 2
  20   10   27 1
  21   10   28 1
  22   10   29 1
  23   11   15 1
  24   11   30 1
  25   11   31 1
  26   12   16 1
  27   12   32 1
  28   12   33 1
  29   13   16 ar
  30   13   17 ar
  31   15   21 1
  32   15   34 1
  33   15   35 1
  34   16   18 ar
  35   17   19 ar
  36   17   36 1
  37   18   20 ar
  38   18   37 1
  39   19   20 ar
  40   19   38 1
  41   20   39 1
  42   21   40 1

#	End of record

