#	Name: ASD08178164
#	Creating user name:	WinNT
#	Creation time:	15. 06. 2019 21:18

#	Modifying user name:	WinNT
#	Modification time:	15. 06. 2019 21:18

#	Program:	/corina/corina34_cracker 3.40 0067  02.08.2006

@<TRIPOS>MOLECULE
ASD08178164
  72   77    0    0    0
SMALL
NO_CHARGES


@<TRIPOS>ATOM
   1 C1            -0.0155     1.2947     0.0092 C.2     
   2 N2             0.0021    -0.0041     0.0020 N.2     
   3 N3            -1.1080    -0.6054     0.0101 N.2     
   4 C4            -2.1692     0.1372     0.0249 C.2     
   5 S5            -1.6454     1.8216     0.0350 S.3     
   6 C6            -3.5951    -0.3504     0.0368 C.3     
   7 C7            -4.0631    -0.5225     1.4832 C.3     
   8 C8            -5.5108    -1.0175     1.4953 C.3     
   9 C9            -5.9789    -1.1897     2.9417 C.3     
  10 C10           -7.4048    -1.6772     2.9536 C.2     
  11 N11           -7.7893    -2.9140     2.9518 N.2     
  12 N12           -9.0351    -3.1183     2.9632 N.2     
  13 C13           -9.8162    -2.0805     2.9757 C.2     
  14 S14           -8.8499    -0.6660     2.9802 S.3     
  15 N15          -11.2065    -2.1126     2.9893 N.am    
  16 C16          -11.8534    -3.2949     2.9908 C.2     
  17 C17          -13.3599    -3.3296     3.0055 C.3     
  18 O18          -11.2230    -4.3310     2.9803 O.2     
  19 C19          -13.8294    -4.7616     3.0043 C.ar    
  20 C20          -14.0328    -5.4229     4.2015 C.ar    
  21 C21          -14.0617    -5.4105     1.8073 C.ar    
  22 C22          -14.4946    -6.7294     1.8069 C.ar    
  23 C23          -14.6929    -7.3924     3.0104 C.ar    
  24 C24          -14.4640    -6.7367     4.2043 C.ar    
  25 N25          -14.7317    -7.3907     0.5932 N.pl3   
  26 C26          -14.5811    -6.8706    -0.6525 C.2     
  27 N27          -14.8966    -7.7872    -1.5265 N.2     
  28 C28          -15.2548    -8.9090    -0.8844 C.2     
  29 C29          -15.1537    -8.6861     0.4397 C.2     
  30 N30            1.1034     2.1206     0.0029 N.am    
  31 C31            2.3386     1.5818    -0.0123 C.2     
  32 C32            3.5511     2.4767    -0.0190 C.3     
  33 O33            2.4745     0.3766    -0.0205 O.2     
  34 C34            4.7989     1.6319    -0.0361 C.ar    
  35 C35            5.3585     1.2520    -1.2404 C.ar    
  36 C36            6.5082     0.4742    -1.2553 C.ar    
  37 C37            7.0922     0.0806    -0.0591 C.ar    
  38 C38            6.5281     0.4635     1.1422 C.ar    
  39 C39            5.3858     1.2427     1.1539 C.ar    
  40 N40            7.0784     0.0866    -2.4765 N.pl3   
  41 C41            6.6187     0.3961    -3.7166 C.2     
  42 N42            7.4131    -0.1430    -4.6008 N.2     
  43 C43            8.3941    -0.8063    -3.9710 C.2     
  44 C44            8.2084    -0.6715    -2.6442 C.2     
  45 H45           -4.2319     0.3767    -0.4671 H       
  46 H46           -3.6561    -1.3075    -0.4812 H       
  47 H47           -3.4263    -1.2496     1.9871 H       
  48 H48           -4.0021     0.4346     2.0012 H       
  49 H49           -6.1476    -0.2904     0.9914 H       
  50 H50           -5.5719    -1.9746     0.9773 H       
  51 H51           -5.3421    -1.9168     3.4456 H       
  52 H52           -5.9178    -0.2326     3.4597 H       
  53 H53          -11.7107    -1.2839     2.9977 H       
  54 H54          -13.7261    -2.8280     3.9013 H       
  55 H55          -13.7437    -2.8206     2.1214 H       
  56 H56          -13.8541    -4.9123     5.1363 H       
  57 H57          -13.9070    -4.8921     0.8725 H       
  58 H58          -15.0300    -8.4184     3.0131 H       
  59 H59          -14.6177    -7.2520     5.1409 H       
  60 H60          -14.2552    -5.8667    -0.8815 H       
  61 H61          -15.5663    -9.8328    -1.3491 H       
  62 H62          -15.3706    -9.3902     1.2294 H       
  63 H63            0.9948     3.0845     0.0095 H       
  64 H64            3.5296     3.1110    -0.9053 H       
  65 H65            3.5470     3.1008     0.8746 H       
  66 H66            4.9018     1.5595    -2.1696 H       
  67 H67            7.9865    -0.5249    -0.0676 H       
  68 H68            6.9818     0.1573     2.0732 H       
  69 H69            4.9467     1.5412     2.0943 H       
  70 H70            5.7425     0.9887    -3.9345 H       
  71 H71            9.1968    -1.3508    -4.4460 H       
  72 H72            8.8266    -1.0870    -1.8622 H       
@<TRIPOS>BOND
   1    1    2 2
   2    1   30 1
   3    1    5 1
   4    2    3 1
   5    3    4 2
   6    4    5 1
   7    4    6 1
   8    6    7 1
   9    6   45 1
  10    6   46 1
  11    7    8 1
  12    7   47 1
  13    7   48 1
  14    8    9 1
  15    8   49 1
  16    8   50 1
  17    9   10 1
  18    9   51 1
  19    9   52 1
  20   10   11 2
  21   10   14 1
  22   11   12 1
  23   12   13 2
  24   13   14 1
  25   13   15 1
  26   15   16 am
  27   15   53 1
  28   16   17 1
  29   16   18 2
  30   17   19 1
  31   17   54 1
  32   17   55 1
  33   19   20 ar
  34   19   21 ar
  35   20   24 ar
  36   20   56 1
  37   21   22 ar
  38   21   57 1
  39   22   23 ar
  40   22   25 1
  41   23   24 ar
  42   23   58 1
  43   24   59 1
  44   25   26 1
  45   25   29 1
  46   26   27 2
  47   26   60 1
  48   27   28 1
  49   28   29 2
  50   28   61 1
  51   29   62 1
  52   30   31 am
  53   30   63 1
  54   31   32 1
  55   31   33 2
  56   32   34 1
  57   32   64 1
  58   32   65 1
  59   34   35 ar
  60   34   39 ar
  61   35   36 ar
  62   35   66 1
  63   36   37 ar
  64   36   40 1
  65   37   38 ar
  66   37   67 1
  67   38   39 ar
  68   38   68 1
  69   39   69 1
  70   40   41 1
  71   40   44 1
  72   41   42 2
  73   41   70 1
  74   42   43 1
  75   43   44 2
  76   43   71 1
  77   44   72 1

#	End of record

