#	Name: ASD01410296
#	Creating user name:	WinNT
#	Creation time:	15. 06. 2019 19:17

#	Modifying user name:	WinNT
#	Modification time:	15. 06. 2019 19:17

#	Program:	/corina/corina34_cracker 3.40 0067  02.08.2006

@<TRIPOS>MOLECULE
ASD01410296
  54   58    0    0    0
SMALL
NO_CHARGES


@<TRIPOS>ATOM
   1 O1             0.0866     1.6109    -0.3099 O.3     
   2 C2             0.0383     0.2721    -0.2680 C.2     
   3 C3             1.3088    -0.2002    -0.1456 C.2     
   4 C4             2.1730     0.9868    -0.1141 C.2     
   5 C5             1.3529     2.0451    -0.2189 C.2     
   6 N6             2.6644    -2.2146    -0.8728 N.pl3   
   7 C7             1.7313    -1.6146    -0.0619 C.2     
   8 C8             1.2584    -2.5239     0.8290 C.2     
   9 C9             1.9124    -3.7542     0.5811 C.ar    
  10 C10            2.7913    -3.5384    -0.5003 C.ar    
  11 C11            1.8309    -5.0224     1.1749 C.ar    
  12 C12            2.6032    -6.0423     0.7114 C.ar    
  13 C13            3.4848    -5.8356    -0.3607 C.ar    
  14 C14            3.5729    -4.5823    -0.9667 C.ar    
  15 C15           -0.9807    -3.1863     1.6636 C.3     
  16 C16           -2.0332    -2.9269     2.7433 C.3     
  17 C17           -1.4308    -3.2093     4.1211 C.3     
  18 C18           -0.2284    -2.2913     4.3499 C.3     
  19 C19            0.8241    -2.5508     3.2702 C.3     
  20 C20            0.2217    -2.2683     1.8924 C.3     
  21 C21            2.6618    -1.7608    -3.2567 C.ar    
  22 C22            2.3082    -0.6630    -4.0187 C.ar    
  23 C23            1.6353    -0.8594    -5.2147 C.ar    
  24 C24            1.3419    -2.1585    -5.6013 C.ar    
  25 C25            1.7273    -3.2066    -4.7874 C.ar    
  26 N26            2.3663    -2.9822    -3.6558 N.ar    
  27 C27            3.3990    -1.5595    -1.9579 C.3     
  28 C28            4.3157    -6.9485    -0.8525 C.2     
  29 O29            5.0800    -6.7721    -1.7807 O.2     
  30 O30            4.2282    -8.1621    -0.2729 O.3     
  31 H31           -0.8569    -0.3296    -0.3219 H       
  32 H32            3.2491     1.0049    -0.0247 H       
  33 H33            1.6629     3.0796    -0.2290 H       
  34 H34            1.1550    -5.1893     2.0006 H       
  35 H35            2.5375    -7.0171     1.1718 H       
  36 H36            4.2517    -4.4252    -1.7919 H       
  37 H37           -0.6583    -4.2264     1.7129 H       
  38 H38           -1.4098    -2.9851     0.6820 H       
  39 H39           -2.3556    -1.8868     2.6940 H       
  40 H40           -2.8898    -3.5809     2.5803 H       
  41 H41           -2.1807    -3.0245     4.8903 H       
  42 H42           -1.1085    -4.2494     4.1704 H       
  43 H43           -0.5508    -1.2512     4.3006 H       
  44 H44            0.2007    -2.4925     5.3315 H       
  45 H45            1.6807    -1.8968     3.4332 H       
  46 H46            1.1465    -3.5909     3.3195 H       
  47 H47           -0.1006    -1.2283     1.8431 H       
  48 H48            2.5527     0.3350    -3.6864 H       
  49 H49            1.3461    -0.0207    -5.8306 H       
  50 H50            0.8185    -2.3486    -6.5267 H       
  51 H51            1.5025    -4.2212    -5.0814 H       
  52 H52            3.4817    -0.4930    -1.7485 H       
  53 H53            4.3961    -1.9930    -2.0351 H       
  54 H54            4.7931    -8.8610    -0.6301 H       
@<TRIPOS>BOND
   1    1    2 1
   2    1    5 1
   3    2    3 2
   4    2   31 1
   5    3    4 1
   6    3    7 1
   7    4    5 2
   8    4   32 1
   9    5   33 1
  10    6    7 1
  11    6   27 1
  12    6   10 1
  13    7    8 2
  14    8    9 1
  15    8   20 1
  16    9   10 ar
  17    9   11 ar
  18   10   14 ar
  19   11   12 ar
  20   11   34 1
  21   12   13 ar
  22   12   35 1
  23   13   14 ar
  24   13   28 1
  25   14   36 1
  26   15   16 1
  27   15   20 1
  28   15   37 1
  29   15   38 1
  30   16   17 1
  31   16   39 1
  32   16   40 1
  33   17   18 1
  34   17   41 1
  35   17   42 1
  36   18   19 1
  37   18   43 1
  38   18   44 1
  39   19   20 1
  40   19   45 1
  41   19   46 1
  42   20   47 1
  43   21   22 ar
  44   21   26 ar
  45   21   27 1
  46   22   23 ar
  47   22   48 1
  48   23   24 ar
  49   23   49 1
  50   24   25 ar
  51   24   50 1
  52   25   26 ar
  53   25   51 1
  54   27   52 1
  55   27   53 1
  56   28   29 2
  57   28   30 1
  58   30   54 1

#	End of record

