#	Name: ASD02408048
#	Creating user name:	WinNT
#	Creation time:	15. 06. 2019 20:21

#	Modifying user name:	WinNT
#	Modification time:	15. 06. 2019 20:21

#	Program:	/corina/corina34_cracker 3.40 0067  02.08.2006

@<TRIPOS>MOLECULE
ASD02408048
  34   35    0    0    0
SMALL
NO_CHARGES


@<TRIPOS>ATOM
   1 C1            -0.0160     1.3297     0.0094 C.2     
   2 C2             0.0021    -0.0041     0.0020 C.2     
   3 C3             1.2433     2.1575     0.0018 C.3     
   4 C4             1.6498     2.4405    -1.4215 C.2     
   5 N5             2.7582     3.1716    -1.6490 N.am    
   6 N6             0.9191     1.9646    -2.3929 N.2     
   7 C7             1.2321     2.1838    -3.6764 C.2     
   8 C8             2.3727     2.9431    -3.9855 C.2     
   9 C9             3.1518     3.4438    -2.9109 C.2     
  10 N10            0.4467     1.6713    -4.6796 N.pl3   
  11 O11            4.1514     4.1084    -3.1224 O.2     
  12 S12           -1.6467    -0.6164     0.0145 S.3     
  13 C13           -2.2867     1.0218     0.0295 C.2     
  14 C14           -1.2791     1.8958     0.0186 C.2     
  15 C15           -1.4319     0.4328    -5.6380 C.3     
  16 C16           -0.7409     0.8800    -4.3483 C.3     
  17 O17           -0.5731    -0.4564    -6.3549 O.3     
  18 C18           -1.1265    -0.9356    -7.5821 C.3     
  19 C19            2.7412     3.1997    -5.3453 C.1     
  20 N20            3.0335     3.4032    -6.4240 N.1     
  21 H21            0.8929    -0.6146    -0.0101 H       
  22 H22            1.0628     3.0981     0.5220 H       
  23 H23            2.0405     1.6108     0.5055 H       
  24 H24            3.2770     3.5051    -0.9003 H       
  25 H25            0.6782     1.8332    -5.6075 H       
  26 H26           -3.3352     1.2805     0.0409 H       
  27 H27           -1.4368     2.9642     0.0246 H       
  28 H28           -2.3623    -0.0795    -5.3930 H       
  29 H29           -1.6488     1.3047    -6.2552 H       
  30 H30           -0.4444     0.0035    -3.7722 H       
  31 H31           -1.4288     1.4864    -3.7590 H       
  32 H32           -2.0505    -1.4763    -7.3774 H       
  33 H33           -1.3371    -0.0921    -8.2396 H       
  34 H34           -0.4139    -1.6040    -8.0655 H       
@<TRIPOS>BOND
   1    1    2 2
   2    1    3 1
   3    1   14 1
   4    2   12 1
   5    2   21 1
   6    3    4 1
   7    3   22 1
   8    3   23 1
   9    4    5 1
  10    4    6 2
  11    5    9 am
  12    5   24 1
  13    6    7 1
  14    7    8 2
  15    7   10 1
  16    8    9 1
  17    8   19 1
  18    9   11 2
  19   10   16 1
  20   10   25 1
  21   12   13 1
  22   13   14 2
  23   13   26 1
  24   14   27 1
  25   15   16 1
  26   15   17 1
  27   15   28 1
  28   15   29 1
  29   16   30 1
  30   16   31 1
  31   17   18 1
  32   18   32 1
  33   18   33 1
  34   18   34 1
  35   19   20 3

#	End of record

