#	Name: ASD00842983
#	Creating user name:	WinNT
#	Creation time:	15. 06. 2019 18:45

#	Modifying user name:	WinNT
#	Modification time:	15. 06. 2019 18:45

#	Program:	/corina/corina34_cracker 3.40 0067  02.08.2006

@<TRIPOS>MOLECULE
ASD00842983
  82   87    0    0    0
SMALL
NO_CHARGES


@<TRIPOS>ATOM
   1 F1            -0.1182    -3.1667     4.7124 F       
   2 N2            -0.0051     1.3211     0.0355 N.ar    
   3 C3             0.0089    -0.0012     0.0185 C.ar    
   4 C4             1.2116    -0.6961    -0.0015 C.ar    
   5 C5             2.3994     0.0138    -0.0035 C.ar    
   6 C6             2.3418     1.4008     0.0147 C.ar    
   7 C7             1.1108     2.0254     0.0341 C.ar    
   8 C8             1.2227    -2.2030    -0.0203 C.3     
   9 C9             0.4753    -2.7238    -1.2294 C.2     
  10 N10            2.5990    -2.7050    -0.0123 N.am    
  11 C11            3.4466    -2.3635    -1.0029 C.2     
  12 N12            4.7401    -2.7371    -0.9417 N.am    
  13 O13            3.0444    -1.7184    -1.9518 O.2     
  14 C14            5.2677    -3.4158     0.2497 C.3     
  15 C15            6.4985    -2.6518     0.7480 C.3     
  16 C16            7.5064    -2.5150    -0.3954 C.3     
  17 C17            6.8758    -1.7203    -1.5412 C.3     
  18 C18            5.6479    -2.4788    -2.0677 C.3     
  19 N19            8.7022    -1.8118     0.0878 N.3     
  20 C20            9.7416    -1.7658    -0.9501 C.3     
  21 C21           10.9362    -0.9586    -0.4366 C.3     
  22 N22           11.4506    -1.5780     0.7928 N.3     
  23 C23           10.4112    -1.6239     1.8307 C.3     
  24 C24            9.2166    -2.4312     1.3172 C.3     
  25 C25           12.6464    -0.8748     1.2760 C.3     
  26 O26            0.7561    -2.5218    -2.3919 O.2     
  27 N27           -0.5572    -3.4524    -0.7729 N.am    
  28 C28            0.4486    -2.7529     1.1557 C.ar    
  29 C29           -0.6015    -3.4897     0.6224 C.ar    
  30 C30            0.6134    -2.6428     2.5180 C.ar    
  31 C31           -0.2757    -3.2723     3.3747 C.ar    
  32 C32           -1.3270    -4.0099     2.8545 C.ar    
  33 C33           -1.4922    -4.1203     1.4881 C.ar    
  34 Cl34          -2.4418    -4.7992     3.9259 Cl      
  35 C35           -1.0286    -5.8352    -2.0669 C.ar    
  36 C36           -1.3611    -6.8800    -1.2250 C.ar    
  37 C37           -0.2117    -6.0608    -3.1590 C.ar    
  38 C38            0.2727    -7.3311    -3.4092 C.ar    
  39 C39           -0.0595    -8.3757    -2.5671 C.ar    
  40 C40           -0.8764    -8.1502    -1.4749 C.ar    
  41 H41            0.3189    -9.3682    -2.7626 H       
  42 H42           -1.9993    -6.7037    -0.3717 H       
  43 O43           -1.1626    -0.6857     0.0211 O.3     
  44 C44           -2.3649     0.0863     0.0426 C.3     
  45 C45           -3.5735    -0.8519     0.0423 C.3     
  46 F46           -3.5485    -1.6442    -1.1104 F       
  47 F47           -3.5264    -1.6733     1.1739 F       
  48 S48           -1.6518    -4.2175    -1.7521 S.o2    
  49 O49           -2.8325    -4.3857    -0.9795 O.2     
  50 O50           -1.6278    -3.5293    -2.9951 O.2     
  51 H51            3.3496    -0.4994    -0.0185 H       
  52 H52            3.2502     1.9848     0.0141 H       
  53 H53            1.0605     3.1041     0.0480 H       
  54 H54            2.9002    -3.2831     0.7060 H       
  55 H55            4.5061    -3.4301     1.0294 H       
  56 H56            5.5504    -4.4369    -0.0065 H       
  57 H57            6.1982    -1.6610     1.0889 H       
  58 H58            6.9561    -3.1977     1.5730 H       
  59 H59            7.7875    -3.5058    -0.7523 H       
  60 H60            6.5720    -0.7382    -1.1788 H       
  61 H61            7.6020    -1.6031    -2.3456 H       
  62 H62            5.9643    -3.4221    -2.5128 H       
  63 H63            5.1371    -1.8726    -2.8158 H       
  64 H64           10.0631    -2.7798    -1.1879 H       
  65 H65            9.3403    -1.2917    -1.8458 H       
  66 H66           11.7202    -0.9476    -1.1938 H       
  67 H67           10.6206     0.0630    -0.2245 H       
  68 H68           10.8125    -2.0980     2.7264 H       
  69 H69           10.0897    -0.6099     2.0685 H       
  70 H70            8.4327    -2.4422     2.0744 H       
  71 H71            9.5322    -3.4527     1.1051 H       
  72 H72           12.3961     0.1650     1.4868 H       
  73 H73           13.0064    -1.3536     2.1867 H       
  74 H74           13.4240    -0.9138     0.5132 H       
  75 H75            1.4346    -2.0670     2.9186 H       
  76 H76           -2.3139    -4.6969     1.0896 H       
  77 H77            0.0479    -5.2446    -3.8170 H       
  78 H78            0.9103    -7.5074    -4.2629 H       
  79 H79           -1.1362    -8.9664    -0.8172 H       
  80 H80           -2.3844     0.7036     0.9407 H       
  81 H81           -2.4016     0.7263    -0.8390 H       
  82 H82           -4.4906    -0.2631     0.0587 H       
@<TRIPOS>BOND
   1    1   31 1
   2    2    3 ar
   3    2    7 ar
   4    3    4 ar
   5    3   43 1
   6    4    5 ar
   7    4    8 1
   8    5    6 ar
   9    5   51 1
  10    6    7 ar
  11    6   52 1
  12    7   53 1
  13    8    9 1
  14    8   10 1
  15    8   28 1
  16    9   26 2
  17    9   27 am
  18   10   11 am
  19   10   54 1
  20   11   12 am
  21   11   13 2
  22   12   14 1
  23   12   18 1
  24   14   15 1
  25   14   55 1
  26   14   56 1
  27   15   16 1
  28   15   57 1
  29   15   58 1
  30   16   17 1
  31   16   19 1
  32   16   59 1
  33   17   18 1
  34   17   60 1
  35   17   61 1
  36   18   62 1
  37   18   63 1
  38   19   20 1
  39   19   24 1
  40   20   21 1
  41   20   64 1
  42   20   65 1
  43   21   22 1
  44   21   66 1
  45   21   67 1
  46   22   23 1
  47   22   25 1
  48   23   24 1
  49   23   68 1
  50   23   69 1
  51   24   70 1
  52   24   71 1
  53   25   72 1
  54   25   73 1
  55   25   74 1
  56   27   48 am
  57   27   29 1
  58   28   29 ar
  59   28   30 ar
  60   29   33 ar
  61   30   31 ar
  62   30   75 1
  63   31   32 ar
  64   32   33 ar
  65   32   34 1
  66   33   76 1
  67   35   36 ar
  68   35   37 ar
  69   35   48 1
  70   36   42 1
  71   36   40 ar
  72   37   38 ar
  73   37   77 1
  74   38   39 ar
  75   38   78 1
  76   39   40 ar
  77   39   41 1
  78   40   79 1
  79   43   44 1
  80   44   45 1
  81   44   80 1
  82   44   81 1
  83   45   46 1
  84   45   47 1
  85   45   82 1
  86   48   49 2
  87   48   50 2

#	End of record

