#	Name: ASD01885194
#	Creating user name:	WinNT
#	Creation time:	15. 06. 2019 19:49

#	Modifying user name:	WinNT
#	Modification time:	15. 06. 2019 19:49

#	Program:	/corina/corina34_cracker 3.40 0067  02.08.2006

@<TRIPOS>MOLECULE
ASD01885194
  52   56    0    0    0
SMALL
NO_CHARGES


@<TRIPOS>ATOM
   1 C1             0.7178     1.4942     1.0695 C.2     
   2 C2             0.7760     0.0323     1.1178 C.2     
   3 C3             1.2465    -0.6462    -0.0133 C.2     
   4 C4             1.6415     0.0965    -1.1426 C.2     
   5 C5             1.5734     1.4411    -1.1494 C.2     
   6 N6             1.1222     2.1431    -0.0714 N.pl3   
   7 C7             0.9538     3.4735     0.1824 C.2     
   8 N8             0.4817     3.5839     1.3955 N.2     
   9 N9             0.3345     2.4204     1.9253 N.2     
  10 C10            1.2569     4.6071    -0.7631 C.3     
  11 N11            1.3225    -2.0264    -0.0210 N.pl3   
  12 C12            2.6200    -2.7040    -0.1473 C.3     
  13 C13            2.5473    -3.6951    -1.3131 C.3     
  14 C14            1.3627    -4.6403    -1.1008 C.3     
  15 C15            0.0627    -3.8332    -1.0712 C.3     
  16 C16            0.1078    -2.8437     0.1030 C.3     
  17 C17            1.3084    -5.6385    -2.2285 C.ar    
  18 C18            1.4090    -6.9908    -1.9601 C.ar    
  19 C19            1.3592    -7.9063    -2.9946 C.ar    
  20 C20            1.2084    -7.4696    -4.2974 C.ar    
  21 C21            1.1068    -6.1174    -4.5658 C.ar    
  22 C22            1.1523    -5.2020    -3.5308 C.ar    
  23 C23            0.0333     4.9145    -1.5874 C.ar    
  24 C24           -0.9011     5.8418    -1.1522 C.ar    
  25 C25           -2.0107     6.0981    -1.9352 C.ar    
  26 N26           -2.1857     5.4723    -3.0827 N.ar    
  27 C27           -1.3181     4.5846    -3.5278 C.ar    
  28 C28           -0.1819     4.2809    -2.8018 C.ar    
  29 C29            0.3644    -0.6832     2.2879 C.1     
  30 N30            0.0379    -1.2507     3.2162 N.1     
  31 H31            2.0054    -0.4211    -2.0178 H       
  32 H32            1.8848     1.9782    -2.0331 H       
  33 H33            1.5414     5.4907    -0.1918 H       
  34 H34            2.0766     4.3212    -1.4223 H       
  35 H35            3.3995    -1.9673    -0.3419 H       
  36 H36            2.8434    -3.2404     0.7750 H       
  37 H37            2.4142    -3.1490    -2.2470 H       
  38 H38            3.4705    -4.2729    -1.3574 H       
  39 H39            1.4841    -5.1679    -0.1547 H       
  40 H40           -0.0470    -3.2859    -2.0074 H       
  41 H41           -0.7825    -4.5094    -0.9433 H       
  42 H42            0.1256    -3.3937     1.0439 H       
  43 H43           -0.7701    -2.1985     0.0711 H       
  44 H44            1.5268    -7.3320    -0.9422 H       
  45 H45            1.4385    -8.9628    -2.7850 H       
  46 H46            1.1702    -8.1849    -5.1057 H       
  47 H47            0.9893    -5.7761    -5.5837 H       
  48 H48            1.0730    -4.1456    -3.7405 H       
  49 H49           -0.7637     6.3571    -0.2131 H       
  50 H50           -2.7431     6.8191    -1.6033 H       
  51 H51           -1.4955     4.0919    -4.4723 H       
  52 H52            0.5251     3.5531    -3.1717 H       
@<TRIPOS>BOND
   1    1    2 1
   2    1    6 1
   3    1    9 2
   4    2   29 1
   5    2    3 2
   6    3    4 1
   7    3   11 1
   8    4    5 2
   9    4   31 1
  10    5    6 1
  11    5   32 1
  12    6    7 1
  13    7    8 2
  14    7   10 1
  15    8    9 1
  16   10   23 1
  17   10   33 1
  18   10   34 1
  19   11   12 1
  20   11   16 1
  21   12   13 1
  22   12   35 1
  23   12   36 1
  24   13   14 1
  25   13   37 1
  26   13   38 1
  27   14   15 1
  28   14   17 1
  29   14   39 1
  30   15   16 1
  31   15   40 1
  32   15   41 1
  33   16   42 1
  34   16   43 1
  35   17   18 ar
  36   17   22 ar
  37   18   19 ar
  38   18   44 1
  39   19   20 ar
  40   19   45 1
  41   20   21 ar
  42   20   46 1
  43   21   22 ar
  44   21   47 1
  45   22   48 1
  46   23   24 ar
  47   23   28 ar
  48   24   25 ar
  49   24   49 1
  50   25   26 ar
  51   25   50 1
  52   26   27 ar
  53   27   28 ar
  54   27   51 1
  55   28   52 1
  56   29   30 3

#	End of record

