#	Name: ASD01883998
#	Creating user name:	WinNT
#	Creation time:	15. 06. 2019 19:47

#	Modifying user name:	WinNT
#	Modification time:	15. 06. 2019 19:47

#	Program:	/corina/corina34_cracker 3.40 0067  02.08.2006

@<TRIPOS>MOLECULE
ASD01883998
  47   50    0    0    0
SMALL
NO_CHARGES


@<TRIPOS>ATOM
   1 Cl1            0.0000     0.0000     0.0000 Cl      
   2 H2             0.0000     1.3700     0.0000 H       
   3 C3            12.3449    18.8453     7.1126 C.3     
   4 N4            12.3648    17.3804     7.1046 N.am    
   5 C5            11.1670    16.6814     7.1065 C.2     
   6 C6             9.8732    17.1179     7.1154 C.2     
   7 C7             9.0417    15.9974     7.1132 C.2     
   8 N8             9.7903    14.9237     7.1034 N.2     
   9 N9            11.1348    15.3212     7.0989 N.pl3   
  10 C10           12.3154    14.5848     7.0887 C.ar    
  11 C11           12.2920    13.2009     7.0803 C.ar    
  12 C12           13.4914    12.4923     7.0697 C.ar    
  13 C13           14.7121    13.1722     7.0680 C.ar    
  14 C14           14.7427    14.5379     7.0767 C.ar    
  15 C15           13.5486    15.2597     7.0865 C.ar    
  16 C16           13.5478    16.7325     7.0898 C.2     
  17 O17           14.5944    17.3530     7.0836 O.2     
  18 C18           13.4724    11.0103     7.0607 C.ar    
  19 C19           14.6702    10.2851     7.0559 C.ar    
  20 C20           14.6029     8.9063     7.0480 C.ar    
  21 C21           13.3561     8.2864     7.0450 C.ar    
  22 N22           13.2802     6.9002     7.0376 N.pl3   
  23 N23           12.2411     9.0022     7.0498 N.ar    
  24 C24           12.2629    10.3195     7.0627 C.ar    
  25 C25            7.5349    16.0196     7.1213 C.3     
  26 C26            6.9409    17.4024     7.4375 C.3     
  27 C27            5.8843    17.1079     6.3596 C.3     
  28 C28            6.9133    16.1597     5.7217 C.3     
  29 H29           13.3675    19.2226     7.1049 H       
  30 H30           11.8177    19.2064     6.2296 H       
  31 H31           11.8347    19.1968     8.0094 H       
  32 H32            9.5505    18.1485     7.1231 H       
  33 H33           11.3495    12.6735     7.0823 H       
  34 H34           15.6371    12.6146     7.0601 H       
  35 H35           15.6892    15.0579     7.0761 H       
  36 H36           15.6237    10.7923     7.0579 H       
  37 H37           15.5068     8.3152     7.0437 H       
  38 H38           14.0925     6.3700     7.0344 H       
  39 H39           12.4149     6.4618     7.0355 H       
  40 H40           11.3334    10.8694     7.0705 H       
  41 H41            7.1028    15.2119     7.7121 H       
  42 H42            6.5284    17.4808     8.4434 H       
  43 H43            7.6033    18.2303     7.1848 H       
  44 H44            5.0000    16.5986     6.7427 H       
  45 H45            5.6417    17.9703     5.7389 H       
  46 H46            7.5682    16.6479     5.0000 H       
  47 H47            6.4786    15.2349     5.3425 H       
@<TRIPOS>BOND
   1    1    2 1
   2    3    4 1
   3    3   29 1
   4    3   30 1
   5    3   31 1
   6    4   16 am
   7    4    5 1
   8    5    9 1
   9    5    6 2
  10    6    7 1
  11    6   32 1
  12    7    8 2
  13    7   25 1
  14    8    9 1
  15    9   10 1
  16   10   15 ar
  17   10   11 ar
  18   11   12 ar
  19   11   33 1
  20   12   13 ar
  21   12   18 1
  22   13   14 ar
  23   13   34 1
  24   14   15 ar
  25   14   35 1
  26   15   16 1
  27   16   17 2
  28   18   24 ar
  29   18   19 ar
  30   19   20 ar
  31   19   36 1
  32   20   21 ar
  33   20   37 1
  34   21   22 1
  35   21   23 ar
  36   22   38 1
  37   22   39 1
  38   23   24 ar
  39   24   40 1
  40   25   28 1
  41   25   26 1
  42   25   41 1
  43   26   27 1
  44   26   42 1
  45   26   43 1
  46   27   28 1
  47   27   44 1
  48   27   45 1
  49   28   46 1
  50   28   47 1

#	End of record

