#	Name: ASD01812806
#	Creating user name:	WinNT
#	Creation time:	15. 06. 2019 19:29

#	Modifying user name:	WinNT
#	Modification time:	15. 06. 2019 19:29

#	Program:	/corina/corina34_cracker 3.40 0067  02.08.2006

@<TRIPOS>MOLECULE
ASD01812806
  54   58    0    0    0
SMALL
NO_CHARGES


@<TRIPOS>ATOM
   1 C1            -0.0166     1.3764     0.0096 C.ar    
   2 C2             0.0021    -0.0041     0.0020 C.ar    
   3 C3             1.2089    -0.6872    -0.0127 C.ar    
   4 C4             2.3941     0.0075    -0.0203 C.ar    
   5 C5             2.3941     1.4057    -0.0132 C.ar    
   6 C6             1.1719     2.0915     0.0021 C.ar    
   7 C7             3.8413    -0.4177    -0.0364 C.3     
   8 N8             4.6313     0.8189    -0.0378 N.am    
   9 C9             3.7915     1.8684    -0.0244 C.2     
  10 C10            6.0942     0.8968    -0.0511 C.3     
  11 C11            6.5825     0.9304    -1.4764 C.ar    
  12 C12            6.5464     2.1167    -2.1908 C.ar    
  13 C13            6.9935     2.1516    -3.4987 C.ar    
  14 C14            7.4802     0.9916    -4.0962 C.ar    
  15 C15            7.5138    -0.1984    -3.3720 C.ar    
  16 C16            7.0705    -0.2219    -2.0652 C.ar    
  17 O17            1.1515     3.4479     0.0091 O.3     
  18 O18            4.1370     3.0341    -0.0215 O.2     
  19 F19            6.0734     3.2406    -1.6091 F       
  20 C20            8.4626    -0.0243    -6.2181 C.2     
  21 C21            7.9612     1.0227    -5.5002 C.2     
  22 N22            7.9897     2.0880    -6.3208 N.2     
  23 N23            8.4718     1.7234    -7.4561 N.2     
  24 N24            8.7672     0.4714    -7.4387 N.pl3   
  25 C25            9.3374    -0.2891    -8.5534 C.3     
  26 C26           -0.1314     4.0773     0.0243 C.3     
  27 C27            0.0461     5.5969     0.0302 C.3     
  28 O28            0.6256     6.0233    -1.2083 O.3     
  29 C29           -0.2819     6.8960    -1.8999 C.3     
  30 C30           -1.1849     7.4988    -0.7944 C.3     
  31 C31           -1.3298     6.2844     0.1627 C.3     
  32 H32           -0.9604     1.9015     0.0169 H       
  33 H33           -0.9272    -0.5544     0.0079 H       
  34 H34            1.2170    -1.7672    -0.0179 H       
  35 H35            4.0688    -1.0067     0.8521 H       
  36 H36            4.0515    -0.9977    -0.9350 H       
  37 H37            6.4145     1.8024     0.4641 H       
  38 H38            6.5091     0.0250     0.4546 H       
  39 H39            6.9651     3.0763    -4.0559 H       
  40 H40            7.8901    -1.1004    -3.8315 H       
  41 H41            7.1010    -1.1432    -1.5024 H       
  42 H42            8.5937    -1.0411    -5.8787 H       
  43 H43            8.5322    -0.7057    -9.1586 H       
  44 H44            9.9498     0.3708    -9.1679 H       
  45 H45            9.9545    -1.0984    -8.1631 H       
  46 H46           -0.6922     3.7805    -0.8620 H       
  47 H47           -0.6756     3.7715     0.9178 H       
  48 H48            0.6892     5.8907     0.8599 H       
  49 H49            0.2684     7.6858    -2.4113 H       
  50 H50           -0.8824     6.3300    -2.6120 H       
  51 H51           -0.6924     8.3344    -0.2971 H       
  52 H52           -2.1522     7.7989    -1.1976 H       
  53 H53           -2.1284     5.6214    -0.1700 H       
  54 H54           -1.5008     6.6159     1.1869 H       
@<TRIPOS>BOND
   1    1    2 ar
   2    1    6 ar
   3    1   32 1
   4    2    3 ar
   5    2   33 1
   6    3    4 ar
   7    3   34 1
   8    4    7 1
   9    4    5 ar
  10    5    6 ar
  11    5    9 1
  12    6   17 1
  13    7    8 1
  14    7   35 1
  15    7   36 1
  16    8    9 am
  17    8   10 1
  18    9   18 2
  19   10   11 1
  20   10   37 1
  21   10   38 1
  22   11   12 ar
  23   11   16 ar
  24   12   13 ar
  25   12   19 1
  26   13   14 ar
  27   13   39 1
  28   14   15 ar
  29   14   21 1
  30   15   16 ar
  31   15   40 1
  32   16   41 1
  33   17   26 1
  34   20   21 2
  35   20   24 1
  36   20   42 1
  37   21   22 1
  38   22   23 2
  39   23   24 1
  40   24   25 1
  41   25   43 1
  42   25   44 1
  43   25   45 1
  44   26   27 1
  45   26   46 1
  46   26   47 1
  47   27   28 1
  48   27   31 1
  49   27   48 1
  50   28   29 1
  51   29   30 1
  52   29   49 1
  53   29   50 1
  54   30   31 1
  55   30   51 1
  56   30   52 1
  57   31   53 1
  58   31   54 1

#	End of record

