#	Name: ASD01911293
#	Creating user name:	WinNT
#	Creation time:	15. 06. 2019 19:57

#	Modifying user name:	WinNT
#	Modification time:	15. 06. 2019 19:57

#	Program:	/corina/corina34_cracker 3.40 0067  02.08.2006

@<TRIPOS>MOLECULE
ASD01911293
  30   32    0    0    0
SMALL
NO_CHARGES


@<TRIPOS>ATOM
   1 C1            -0.0167     1.3796     0.0096 C.ar    
   2 C2             0.0021    -0.0041     0.0020 C.ar    
   3 C3             1.2058    -0.6865    -0.0127 C.ar    
   4 C4             2.3967     0.0090    -0.0204 C.ar    
   5 C5             2.3857     1.4065    -0.0133 C.ar    
   6 C6             1.1661     2.0888     0.0021 C.ar    
   7 C7             3.6181     2.1357    -0.0207 C.1     
   8 C8             4.6284     2.7336    -0.0268 C.1     
   9 C9             5.8608     3.4629    -0.0342 C.ar    
  10 C10            5.8414     4.8559    -0.0270 C.ar    
  11 C11            7.0464     5.5538    -0.0343 C.ar    
  12 C12            8.2702     4.8426    -0.0489 C.ar    
  13 C13            8.2657     3.4457    -0.0559 C.ar    
  14 C14            7.0817     2.7701    -0.0429 C.ar    
  15 C15            7.0922     7.0178    -0.0279 C.2     
  16 C16            8.2817     7.6403    -0.0358 C.2     
  17 N17            9.4644     6.9574    -0.0499 N.am    
  18 C18            9.5188     5.6111    -0.0567 C.2     
  19 O19           10.5939     5.0386    -0.0689 O.2     
  20 H20           -0.9600     1.9055     0.0170 H       
  21 H21           -0.9274    -0.5541     0.0080 H       
  22 H22            1.2127    -1.7665    -0.0179 H       
  23 H23            3.3354    -0.5249    -0.0316 H       
  24 H24            1.1500     3.1686     0.0074 H       
  25 H25            4.9021     5.3887    -0.0162 H       
  26 H26            9.1987     2.9018    -0.0671 H       
  27 H27            7.0830     1.6901    -0.0484 H       
  28 H28            6.1772     7.5914    -0.0172 H       
  29 H29            8.3041     8.7200    -0.0313 H       
  30 H30           10.2944     7.4593    -0.0554 H       
@<TRIPOS>BOND
   1    1    2 ar
   2    1    6 ar
   3    1   20 1
   4    2    3 ar
   5    2   21 1
   6    3    4 ar
   7    3   22 1
   8    4    5 ar
   9    4   23 1
  10    5    6 ar
  11    5    7 1
  12    6   24 1
  13    7    8 3
  14    8    9 1
  15    9   10 ar
  16    9   14 ar
  17   10   11 ar
  18   10   25 1
  19   11   12 ar
  20   11   15 1
  21   12   13 ar
  22   12   18 1
  23   13   14 ar
  24   13   26 1
  25   14   27 1
  26   15   16 2
  27   15   28 1
  28   16   17 1
  29   16   29 1
  30   17   18 am
  31   17   30 1
  32   18   19 2

#	End of record

