#	Name: ASD01230170
#	Creating user name:	WinNT
#	Creation time:	15. 06. 2019 19:11

#	Modifying user name:	WinNT
#	Modification time:	15. 06. 2019 19:11

#	Program:	/corina/corina34_cracker 3.40 0067  02.08.2006

@<TRIPOS>MOLECULE
ASD01230170
  36   38    0    0    0
SMALL
NO_CHARGES


@<TRIPOS>ATOM
   1 S1            -0.5186     1.5541    -1.0708 S.o2    
   2 N2            -0.3507    -0.0602    -0.7492 N.am    
   3 C3             0.7732    -0.6992    -0.9491 C.2     
   4 N4             1.9263    -0.1465    -1.4344 N.pl3   
   5 C5             2.0457     1.2487    -1.8662 C.3     
   6 C6             1.1953     2.1614    -0.9782 C.3     
   7 C7             0.7676    -2.1409    -0.6113 C.2     
   8 C8             1.9371    -2.8711    -0.7622 C.2     
   9 C9             3.0813    -2.2234    -1.2303 C.2     
  10 C10            3.0541    -0.9122    -1.5439 C.2     
  11 C11           -0.4570    -2.7874    -0.1237 C.2     
  12 O12           -1.4490    -2.1198     0.1019 O.2     
  13 N13           -0.4824    -4.1204     0.0740 N.am    
  14 C14           -1.6005    -4.7175     0.6516 C.ar    
  15 C15           -2.5090    -3.9386     1.3602 C.ar    
  16 C16           -3.6153    -4.5445     1.9283 C.ar    
  17 C17           -3.7760    -5.9143     1.7678 C.ar    
  18 C18           -2.8344    -6.6261     1.0516 C.ar    
  19 N19           -1.7915    -6.0204     0.5165 N.ar    
  20 C20           -4.9656    -6.6169     2.3697 C.3     
  21 F21           -6.0182    -6.6243     1.4482 F       
  22 F22           -4.6168    -7.9334     2.6898 F       
  23 F23           -5.3661    -5.9454     3.5298 F       
  24 O24           -1.0000     1.6043    -2.4069 O.2     
  25 O25           -1.2907     2.0559     0.0114 O.2     
  26 H26            3.0895     1.5565    -1.8029 H       
  27 H27            1.7080     1.3355    -2.8989 H       
  28 H28            1.2462     3.1872    -1.3433 H       
  29 H29            1.5510     2.1144     0.0510 H       
  30 H30            1.9620    -3.9235    -0.5211 H       
  31 H31            4.0004    -2.7794    -1.3425 H       
  32 H32            3.9623    -0.4468    -1.8975 H       
  33 H33            0.2778    -4.6638    -0.1859 H       
  34 H34           -2.3527    -2.8752     1.4657 H       
  35 H35           -4.3375    -3.9652     2.4845 H       
  36 H36           -2.9551    -7.6917     0.9245 H       
@<TRIPOS>BOND
   1    1    2 am
   2    1    6 1
   3    1   24 2
   4    1   25 2
   5    2    3 2
   6    3    4 1
   7    3    7 1
   8    4    5 1
   9    4   10 1
  10    5    6 1
  11    5   26 1
  12    5   27 1
  13    6   28 1
  14    6   29 1
  15    7    8 2
  16    7   11 1
  17    8    9 1
  18    8   30 1
  19    9   10 2
  20    9   31 1
  21   10   32 1
  22   11   12 2
  23   11   13 am
  24   13   14 1
  25   13   33 1
  26   14   15 ar
  27   14   19 ar
  28   15   16 ar
  29   15   34 1
  30   16   17 ar
  31   16   35 1
  32   17   18 ar
  33   17   20 1
  34   18   19 ar
  35   18   36 1
  36   20   21 1
  37   20   22 1
  38   20   23 1

#	End of record

