#	Name: ASD01140096
#	Creating user name:	WinNT
#	Creation time:	15. 06. 2019 18:59

#	Modifying user name:	WinNT
#	Modification time:	15. 06. 2019 18:59

#	Program:	/corina/corina34_cracker 3.40 0067  02.08.2006

@<TRIPOS>MOLECULE
ASD01140096
  57   60    0    0    0
SMALL
NO_CHARGES


@<TRIPOS>ATOM
   1 C1            -0.0151     2.4407    -0.3796 C.3     
   2 C2            -0.2130     0.9235    -0.3733 C.3     
   3 C3             0.3710     0.3396     0.9148 C.3     
   4 C4             1.8652     0.6589     0.9878 C.3     
   5 C5             2.0649     2.1759     0.9803 C.3     
   6 C6             1.4791     2.7607    -0.3067 C.3     
   7 C7             2.4508     0.0722     2.2734 C.3     
   8 C8             3.9455     0.3914     2.3461 C.3     
   9 C9             4.1429     1.9079     2.3445 C.3     
  10 C10            3.5595     2.4918     1.0485 C.3     
  11 C11            5.6214     2.2475     2.3631 C.3     
  12 C12            5.7316     3.7939     2.4491 C.3     
  13 C13            5.2670     4.3567     1.1201 C.3     
  14 C14            3.7793     3.9984     0.9651 C.3     
  15 C15            6.3931     1.8118     3.6132 C.3     
  16 C16            7.6184     2.7663     3.6151 C.3     
  17 C17            7.1959     4.0209     2.8105 C.3     
  18 O18           -1.6087     0.6247    -0.4421 O.3     
  19 C19            1.3560     2.7901     2.1891 C.3     
  20 H20            2.3721     0.2219     0.1274 H       
  21 H21            3.6383     2.3458     3.2058 H       
  22 H22            4.0568     2.0266     0.1974 H       
  23 H23            6.1085     1.8678     1.4649 H       
  24 C24            4.8342     4.3149     3.5735 C.3     
  25 C25            7.3386     5.2580     3.6592 C.2     
  26 O26            7.2814     5.1745     4.8626 O.2     
  27 C27            7.5526     6.5992     3.0063 C.3     
  28 H28           -0.4316     2.8576    -1.2966 H       
  29 H29           -0.5225     2.8768     0.4809 H       
  30 H30            0.2952     0.4871    -1.2333 H       
  31 H31           -0.1364     0.7770     1.7746 H       
  32 H32            0.2297    -0.7412     0.9205 H       
  33 H33            1.9863     2.3249    -1.1674 H       
  34 H34            1.6196     3.8416    -0.3113 H       
  35 H35            1.9441     0.5072     3.1349 H       
  36 H36            2.3096    -1.0086     2.2767 H       
  37 H37            4.3627    -0.0284     3.2615 H       
  38 H38            4.4520    -0.0419     1.4837 H       
  39 H39            5.3901     5.4397     1.1128 H       
  40 H40            5.8419     3.9119     0.3079 H       
  41 H41            3.4246     4.3577    -0.0009 H       
  42 H42            3.2105     4.4863     1.7567 H       
  43 H43            5.7896     1.9570     4.5092 H       
  44 H44            6.7132     0.7734     3.5265 H       
  45 H45            7.8734     3.0457     4.6373 H       
  46 H46            8.4697     2.2833     3.1353 H       
  47 H47            7.7985     4.1105     1.9067 H       
  48 H48           -2.0454     0.9660    -1.2345 H       
  49 H49            1.7736     2.3734     3.1056 H       
  50 H50            1.4985     3.8707     2.1834 H       
  51 H51            0.2909     2.5638     2.1393 H       
  52 H52            5.1389     3.8661     4.5189 H       
  53 H53            4.9266     5.3989     3.6394 H       
  54 H54            3.7978     4.0507     3.3632 H       
  55 H55            6.5873     7.0661     2.8105 H       
  56 H56            8.1369     7.2371     3.6694 H       
  57 H57            8.0883     6.4645     2.0666 H       
@<TRIPOS>BOND
   1    1    2 1
   2    1    6 1
   3    1   28 1
   4    1   29 1
   5    2    3 1
   6    2   18 1
   7    2   30 1
   8    3    4 1
   9    3   31 1
  10    3   32 1
  11    4    5 1
  12    4    7 1
  13    4   20 1
  14    5    6 1
  15    5   10 1
  16    5   19 1
  17    6   33 1
  18    6   34 1
  19    7    8 1
  20    7   35 1
  21    7   36 1
  22    8    9 1
  23    8   37 1
  24    8   38 1
  25    9   10 1
  26    9   21 1
  27    9   11 1
  28   10   22 1
  29   10   14 1
  30   11   15 1
  31   11   23 1
  32   11   12 1
  33   12   13 1
  34   12   24 1
  35   12   17 1
  36   13   14 1
  37   13   39 1
  38   13   40 1
  39   14   41 1
  40   14   42 1
  41   15   16 1
  42   15   43 1
  43   15   44 1
  44   16   17 1
  45   16   45 1
  46   16   46 1
  47   17   25 1
  48   17   47 1
  49   18   48 1
  50   19   49 1
  51   19   50 1
  52   19   51 1
  53   24   52 1
  54   24   53 1
  55   24   54 1
  56   25   26 2
  57   25   27 1
  58   27   55 1
  59   27   56 1
  60   27   57 1

#	End of record

