#	Name: ASD08170063
#	Creating user name:	WinNT
#	Creation time:	15. 06. 2019 21:17

#	Modifying user name:	WinNT
#	Modification time:	15. 06. 2019 21:17

#	Program:	/corina/corina34_cracker 3.40 0067  02.08.2006

@<TRIPOS>MOLECULE
ASD08170063
  62   66    0    0    0
SMALL
NO_CHARGES


@<TRIPOS>ATOM
   1 C1            -0.0187     1.5258     0.0104 C.3     
   2 C2             0.0021    -0.0041     0.0020 C.3     
   3 C3             0.7182    -0.4975    -1.2568 C.3     
   4 C4             2.1536     0.0321    -1.2676 C.3     
   5 C5             2.1328     1.5619    -1.2592 C.3     
   6 C6             1.4167     2.0553    -0.0004 C.3     
   7 C7             1.3963     3.5622     0.0079 C.2     
   8 C8             0.7309    -0.5033     1.2229 C.2     
   9 N9             1.9622    -0.2495     1.5346 N.2     
  10 N10            2.3915    -0.7636     2.6048 N.2     
  11 C11            1.5693    -1.4955     3.2943 C.2     
  12 S12            0.0582    -1.5320     2.4881 S.3     
  13 N13            0.8495     4.3237    -0.8859 N.2     
  14 S14            2.1061     4.6056     1.2404 S.3     
  15 C15            1.5661     5.9751     0.3643 C.2     
  16 N16            0.9402     5.5690    -0.6989 N.2     
  17 N17            1.7613     7.3018     0.7329 N.am    
  18 C18            1.2856     8.2944    -0.0449 C.2     
  19 C19            1.4972     9.7320     0.3545 C.3     
  20 O20            0.6873     8.0305    -1.0664 O.2     
  21 C21            0.8735    10.6368    -0.6767 C.ar    
  22 C22            1.0445    11.8946    -2.7068 C.ar    
  23 C23            1.6166    11.0646    -1.7610 C.ar    
  24 C24           -0.4435    11.0345    -0.5413 C.ar    
  25 C25           -1.0156    11.8645    -1.4871 C.ar    
  26 C26           -0.2706    12.2973    -2.5682 C.ar    
  27 N27            1.8650    -2.1381     4.4917 N.am    
  28 C28            3.0953    -2.0265     5.0306 C.2     
  29 C29            3.4157    -2.7227     6.3281 C.3     
  30 O30            3.9446    -1.3656     4.4712 O.2     
  31 C31            4.8457    -2.4399     6.7102 C.ar    
  32 C32            6.4594    -1.0817     7.8434 C.ar    
  33 C33            7.4692    -1.9213     7.4118 C.ar    
  34 C34            7.1679    -3.0165     6.6239 C.ar    
  35 C35            5.8562    -3.2760     6.2734 C.ar    
  36 C36            5.1476    -1.3412     7.4929 C.ar    
  37 H37           -0.5459     1.8868    -0.8726 H       
  38 H38           -0.5289     1.8773     0.9072 H       
  39 H39           -1.0205    -0.3814     0.0098 H       
  40 H40            0.7330    -1.5874    -1.2628 H       
  41 H41            0.1910    -0.1364    -2.1398 H       
  42 H42            2.6808    -0.3290    -0.3846 H       
  43 H43            2.6638    -0.3194    -2.1644 H       
  44 H44            3.1554     1.9392    -1.2670 H       
  45 H45            1.6057     1.9230    -2.1423 H       
  46 H46            1.9439     1.6943     0.8826 H       
  47 H47            2.2399     7.5129     1.5499 H       
  48 H48            1.0329     9.9118     1.3241 H       
  49 H49            2.5656     9.9375     0.4196 H       
  50 H50            1.6252    12.2290    -3.5538 H       
  51 H51            2.6443    10.7506    -1.8689 H       
  52 H52           -1.0255    10.6964     0.3033 H       
  53 H53           -2.0447    12.1747    -1.3817 H       
  54 H54           -0.7176    12.9457    -3.3071 H       
  55 H55            1.1857    -2.6667     4.9391 H       
  56 H56            2.7512    -2.3565     7.1107 H       
  57 H57            3.2775    -3.7972     6.2076 H       
  58 H58            6.6947    -0.2261     8.4590 H       
  59 H59            8.4940    -1.7186     7.6856 H       
  60 H60            7.9568    -3.6724     6.2866 H       
  61 H61            5.6207    -4.1321     5.6586 H       
  62 H62            4.3587    -0.6852     7.8302 H       
@<TRIPOS>BOND
   1    1    2 1
   2    1    6 1
   3    1   37 1
   4    1   38 1
   5    2    3 1
   6    2    8 1
   7    2   39 1
   8    3    4 1
   9    3   40 1
  10    3   41 1
  11    4    5 1
  12    4   42 1
  13    4   43 1
  14    5    6 1
  15    5   44 1
  16    5   45 1
  17    6    7 1
  18    6   46 1
  19    7   14 1
  20    7   13 2
  21    8    9 2
  22    8   12 1
  23    9   10 1
  24   10   11 2
  25   11   12 1
  26   11   27 1
  27   13   16 1
  28   14   15 1
  29   15   16 2
  30   15   17 1
  31   17   18 am
  32   17   47 1
  33   18   19 1
  34   18   20 2
  35   19   21 1
  36   19   48 1
  37   19   49 1
  38   21   24 ar
  39   21   23 ar
  40   22   23 ar
  41   22   26 ar
  42   22   50 1
  43   23   51 1
  44   24   25 ar
  45   24   52 1
  46   25   26 ar
  47   25   53 1
  48   26   54 1
  49   27   28 am
  50   27   55 1
  51   28   29 1
  52   28   30 2
  53   29   31 1
  54   29   56 1
  55   29   57 1
  56   31   36 ar
  57   31   35 ar
  58   32   33 ar
  59   32   36 ar
  60   32   58 1
  61   33   34 ar
  62   33   59 1
  63   34   35 ar
  64   34   60 1
  65   35   61 1
  66   36   62 1

#	End of record

