#	Name: ASD05872032
#	Creating user name:	WinNT
#	Creation time:	15. 06. 2019 21:04

#	Modifying user name:	WinNT
#	Modification time:	15. 06. 2019 21:04

#	Program:	/corina/corina34_cracker 3.40 0067  02.08.2006

@<TRIPOS>MOLECULE
ASD05872032
  72   75    0    0    0
SMALL
NO_CHARGES


@<TRIPOS>ATOM
   1 C1            -0.0168     1.3909     0.0097 C.ar    
   2 C2             0.0021    -0.0041     0.0020 C.ar    
   3 C3            -1.1845    -0.7121     0.0095 C.ar    
   4 C4            -2.3952    -0.0265     0.0248 C.ar    
   5 C5            -2.4171     1.3754     0.0325 C.ar    
   6 C6            -1.2170     2.0760     0.0306 C.ar    
   7 C7            -3.8128    -0.4423     0.0361 C.2     
   8 C8            -4.5353     0.7114     0.0492 C.2     
   9 O9            -3.7097     1.7643     0.0470 O.3     
  10 O10            1.1546     2.0819     0.0022 O.3     
  11 O11            1.1896    -0.6677    -0.0133 O.3     
  12 C12           -6.0401     0.7908     0.0644 C.3     
  13 O13           -6.5025     0.8090     1.4164 O.3     
  14 C14           -7.8475     0.8791     1.6083 C.ar    
  15 C15           -8.3667     0.9005     2.9031 C.ar    
  16 C16           -9.7313     0.9716     3.1104 C.ar    
  17 C17          -10.5973     1.0229     2.0249 C.ar    
  18 C18          -10.0729     1.0017     0.7248 C.ar    
  19 C19           -8.6980     0.9349     0.5208 C.ar    
  20 O20          -11.9415     1.0949     1.9226 O.3     
  21 C21          -12.3321     1.1223     0.6432 C.2     
  22 C22          -11.2441     1.0687    -0.1733 C.2     
  23 C23          -13.7626     1.2013     0.1759 C.3     
  24 C24          -11.2363     1.0758    -1.6423 C.2     
  25 O25          -11.1776     2.1302    -2.2447 O.2     
  26 O26           -7.5238     0.8506     3.9692 O.3     
  27 C27           -4.3345    -1.8156     0.0337 C.2     
  28 O28           -4.5403    -2.3895     1.0855 O.2     
  29 C29            1.0667     3.5081     0.0107 C.3     
  30 C30           -8.1186     0.8760     5.2683 C.3     
  31 C31            2.4750     4.1060     0.0005 C.3     
  32 C32           -7.0215     0.8125     6.3329 C.3     
  33 O33           -4.5850    -2.4395    -1.1349 O.3     
  34 C34           -5.3203    -4.3345    -2.4760 C.3     
  35 C35           -5.0991    -3.7954    -1.0613 C.3     
  36 O36          -11.2942    -0.0868    -2.3224 O.3     
  37 C37          -11.3539    -1.4129    -4.3640 C.3     
  38 C38          -11.2825    -0.0039    -3.7719 C.3     
  39 S39            1.7437    -0.9771     1.3700 S.o2    
  40 O40            3.0581    -1.4798     1.1725 O.2     
  41 O41            1.4582     0.1555     2.1792 O.2     
  42 O42            0.9242    -2.1277     1.9366 O.3     
  43 Na43           1.3545    -3.8986     1.1373 Du      
  44 H44           -1.1722    -1.7920     0.0033 H       
  45 H45           -1.2222     3.1560     0.0365 H       
  46 H46           -6.3611     1.7014    -0.4416 H       
  47 H47           -6.4550    -0.0761    -0.4498 H       
  48 H48          -10.1246     0.9870     4.1161 H       
  49 H49           -8.2983     0.9188    -0.4824 H       
  50 H50          -14.4260     1.2329     1.0402 H       
  51 H51          -13.9006     2.1027    -0.4211 H       
  52 H52          -13.9960     0.3254    -0.4294 H       
  53 H53            0.5230     3.8439    -0.8723 H       
  54 H54            0.5400     3.8343     0.9075 H       
  55 H55           -8.6890     1.7970     5.3888 H       
  56 H56           -8.7835     0.0196     5.3803 H       
  57 H57            2.4079     5.1939     0.0070 H       
  58 H58            3.0187     3.7702     0.8835 H       
  59 H59            3.0017     3.7798    -0.8963 H       
  60 H60           -7.4752     0.8319     7.3238 H       
  61 H61           -6.4511    -0.1085     6.2124 H       
  62 H62           -6.3566     1.6689     6.2209 H       
  63 H63           -5.7062    -5.3524    -2.4207 H       
  64 H64           -6.0380    -3.7016    -2.9979 H       
  65 H65           -4.3741    -4.3336    -3.0172 H       
  66 H66           -4.3814    -4.4283    -0.5394 H       
  67 H67           -6.0453    -3.7964    -0.5201 H       
  68 H68          -11.3451    -1.3506    -5.4522 H       
  69 H69          -10.4950    -1.9928    -4.0263 H       
  70 H70          -12.2725    -1.8990    -4.0353 H       
  71 H71          -12.1414     0.5761    -4.1096 H       
  72 H72          -10.3640     0.4822    -4.1006 H       
@<TRIPOS>BOND
   1    1    2 ar
   2    1   10 1
   3    1    6 ar
   4    2    3 ar
   5    2   11 1
   6    3    4 ar
   7    3   44 1
   8    4    5 ar
   9    4    7 1
  10    5    6 ar
  11    5    9 1
  12    6   45 1
  13    7    8 2
  14    7   27 1
  15    8    9 1
  16    8   12 1
  17   10   29 1
  18   11   39 1
  19   12   13 1
  20   12   46 1
  21   12   47 1
  22   13   14 1
  23   14   15 ar
  24   14   19 ar
  25   15   16 ar
  26   15   26 1
  27   16   17 ar
  28   16   48 1
  29   17   18 ar
  30   17   20 1
  31   18   19 ar
  32   18   22 1
  33   19   49 1
  34   20   21 1
  35   21   22 2
  36   21   23 1
  37   22   24 1
  38   23   50 1
  39   23   51 1
  40   23   52 1
  41   24   25 2
  42   24   36 1
  43   26   30 1
  44   27   28 2
  45   27   33 1
  46   29   31 1
  47   29   53 1
  48   29   54 1
  49   30   32 1
  50   30   55 1
  51   30   56 1
  52   31   57 1
  53   31   58 1
  54   31   59 1
  55   32   60 1
  56   32   61 1
  57   32   62 1
  58   33   35 1
  59   34   35 1
  60   34   63 1
  61   34   64 1
  62   34   65 1
  63   35   66 1
  64   35   67 1
  65   36   38 1
  66   37   38 1
  67   37   68 1
  68   37   69 1
  69   37   70 1
  70   38   71 1
  71   38   72 1
  72   39   40 2
  73   39   41 2
  74   39   42 1
  75   42   43 1

#	End of record

