#	Name: ASD01884469
#	Creating user name:	WinNT
#	Creation time:	15. 06. 2019 19:48

#	Modifying user name:	WinNT
#	Modification time:	15. 06. 2019 19:48

#	Program:	/corina/corina34_cracker 3.40 0067  02.08.2006

@<TRIPOS>MOLECULE
ASD01884469
  56   58    0    0    0
SMALL
NO_CHARGES


@<TRIPOS>ATOM
   1 C1            -0.0164     1.3576     0.0095 C.2     
   2 C2             0.0021    -0.0041     0.0020 C.2     
   3 C3             1.2440    -0.6751    -0.0134 C.2     
   4 C4             2.4024     0.0465    -0.0206 C.2     
   5 N5             2.3700     1.4025    -0.0130 N.am    
   6 C6             1.1986     2.0652     0.0017 C.2     
   7 C7             1.2897    -2.1583    -0.0214 C.ar    
   8 C8             3.6265     2.1556    -0.0210 C.3     
   9 O9             1.1910     3.2857     0.0087 O.2     
  10 C10            4.0438     2.4215    -1.4444 C.ar    
  11 C11            3.6197     3.5704    -2.0857 C.ar    
  12 C12            4.0020     3.8148    -3.3912 C.ar    
  13 C13            4.8095     2.9093    -4.0563 C.ar    
  14 C14            5.2337     1.7597    -3.4140 C.ar    
  15 C15            4.8553     1.5192    -2.1066 C.ar    
  16 C16            0.8122    -2.8771     1.0732 C.ar    
  17 C17            1.8049    -2.8348    -1.1257 C.ar    
  18 C18            1.8465    -4.2130    -1.1310 C.ar    
  19 C19            1.3751    -4.9277    -0.0361 C.ar    
  20 C20            0.8556    -4.2553     1.0638 C.ar    
  21 Cl21           5.2897     3.2153    -5.6962 Cl      
  22 N22            1.4182    -6.3236    -0.0435 N.3     
  23 C23            0.8728    -6.8742     1.2057 C.3     
  24 C24            2.7876    -6.8073    -0.2719 C.3     
  25 C25            2.7794    -8.3370    -0.3319 C.3     
  26 O26            2.2173    -8.8536     0.8774 O.3     
  27 C27            0.8838    -8.4033     1.1309 C.3     
  28 H28           -0.9563     1.8895     0.0169 H       
  29 H29           -0.9217    -0.5635     0.0082 H       
  30 H30            3.3528    -0.4664    -0.0321 H       
  31 H31            3.4856     3.1030     0.4993 H       
  32 H32            4.4006     1.5763     0.4824 H       
  33 H33            2.9891     4.2770    -1.5665 H       
  34 H34            3.6703     4.7122    -3.8922 H       
  35 H35            5.8640     1.0525    -3.9326 H       
  36 H36            5.1863     0.6218    -1.6051 H       
  37 H37            0.4088    -2.3550     1.9282 H       
  38 H38            2.1710    -2.2798    -1.9769 H       
  39 H39            2.2454    -4.7375    -1.9867 H       
  40 H40            0.4899    -4.8125     1.9136 H       
  41 H41            1.4852    -6.5465     2.0458 H       
  42 H42           -0.1503    -6.5238     1.3418 H       
  43 H43            3.1622    -6.4080    -1.2144 H       
  44 H44            3.4306    -6.4785     0.5446 H       
  45 H45            2.1796    -8.6647    -1.1810 H       
  46 H46            3.8002    -8.7024    -0.4440 H       
  47 H47            0.5337    -8.8166     2.0767 H       
  48 H48            0.2289    -8.7329     0.3243 H       
  49 C49           11.8659    11.6193     7.9820 C.3     
  50 C50           11.8866    10.0895     7.9735 C.3     
  51 H51           12.8884    11.9966     7.9742 H       
  52 H52           11.3387    11.9804     7.0989 H       
  53 H53           11.3557    11.9709     8.8787 H       
  54 H54           12.4138     9.7284     8.8566 H       
  55 H55           10.8640     9.7122     7.9813 H       
  56 H56           12.3968     9.7380     7.0767 H       
@<TRIPOS>BOND
   1    1    2 2
   2    1    6 1
   3    1   28 1
   4    2    3 1
   5    2   29 1
   6    3    4 2
   7    3    7 1
   8    4    5 1
   9    4   30 1
  10    5    6 am
  11    5    8 1
  12    6    9 2
  13    7   16 ar
  14    7   17 ar
  15    8   10 1
  16    8   31 1
  17    8   32 1
  18   10   11 ar
  19   10   15 ar
  20   11   12 ar
  21   11   33 1
  22   12   13 ar
  23   12   34 1
  24   13   14 ar
  25   13   21 1
  26   14   15 ar
  27   14   35 1
  28   15   36 1
  29   16   20 ar
  30   16   37 1
  31   17   18 ar
  32   17   38 1
  33   18   19 ar
  34   18   39 1
  35   19   20 ar
  36   19   22 1
  37   20   40 1
  38   22   23 1
  39   22   24 1
  40   23   27 1
  41   23   41 1
  42   23   42 1
  43   24   25 1
  44   24   43 1
  45   24   44 1
  46   25   26 1
  47   25   45 1
  48   25   46 1
  49   26   27 1
  50   27   47 1
  51   27   48 1
  52   49   50 1
  53   49   51 1
  54   49   52 1
  55   49   53 1
  56   50   54 1
  57   50   55 1
  58   50   56 1

#	End of record

