#	Name: ASD05313184
#	Creating user name:	WinNT
#	Creation time:	15. 06. 2019 20:58

#	Modifying user name:	WinNT
#	Modification time:	15. 06. 2019 20:58

#	Program:	/corina/corina34_cracker 3.40 0067  02.08.2006

@<TRIPOS>MOLECULE
ASD05313184
  41   44    0    0    0
SMALL
NO_CHARGES


@<TRIPOS>ATOM
   1 C1            -0.0721     0.8168     1.0247 C.2     
   2 C2             0.1140    -0.6194     0.5969 C.3     
   3 N3             0.9301     1.7302     1.0511 N.pl3   
   4 N4             1.4571    -0.7186    -0.0051 N.am    
   5 C5             2.5714    -0.0370     0.6709 C.3     
   6 C6             2.3168     1.4750     0.6648 C.3     
   7 N7            -0.9042     2.6396     1.7092 N.2     
   8 N8            -1.1571     1.4076     1.4277 N.2     
   9 C9             0.3717     2.8897     1.4957 C.2     
  10 C10            1.0644     4.1804     1.7022 C.ar    
  11 C11            0.3481     5.2838     2.1660 C.ar    
  12 C12            1.0104     6.4840     2.3545 C.ar    
  13 C13            2.3683     6.5430     2.0733 C.ar    
  14 C14            3.0167     5.4102     1.6163 C.ar    
  15 N15            2.3644     4.2780     1.4499 N.ar    
  16 C16            1.6574    -1.4143    -1.1419 C.2     
  17 O17            2.7490    -1.4035    -1.6767 O.2     
  18 C18            0.5502    -2.1902    -1.7381 C.ar    
  19 C19            0.3186    -2.1384    -3.1151 C.ar    
  20 C20           -0.7183    -2.8664    -3.6650 C.ar    
  21 C21           -1.5260    -3.6445    -2.8555 C.ar    
  22 C22           -1.3018    -3.6995    -1.4911 C.ar    
  23 C23           -0.2658    -2.9829    -0.9292 C.ar    
  24 C24           -0.9705    -2.8125    -5.1497 C.3     
  25 F25           -2.0642    -3.6253    -5.4668 F       
  26 F26           -1.2441    -1.4939    -5.5287 F       
  27 F27            0.1626    -3.2683    -5.8321 F       
  28 Cl28           1.3310    -1.1612    -4.1319 Cl      
  29 H29            0.0451    -1.2775     1.4631 H       
  30 H30           -0.6440    -0.8898    -0.1382 H       
  31 H31            2.6436    -0.3897     1.6997 H       
  32 H32            3.5020    -0.2516     0.1455 H       
  33 H33            2.4948     1.8700    -0.3355 H       
  34 H34            2.9876     1.9605     1.3736 H       
  35 H35           -0.7085     5.2026     2.3745 H       
  36 H36            0.4824     7.3556     2.7122 H       
  37 H37            2.9135     7.4652     2.2099 H       
  38 H38            4.0732     5.4534     1.3964 H       
  39 H39           -2.3358    -4.2117    -3.2904 H       
  40 H40           -1.9370    -4.3087    -0.8652 H       
  41 H41           -0.0893    -3.0312     0.1352 H       
@<TRIPOS>BOND
   1    1    2 1
   2    1    3 1
   3    1    8 2
   4    2    4 1
   5    2   29 1
   6    2   30 1
   7    3    6 1
   8    3    9 1
   9    4    5 1
  10    4   16 am
  11    5    6 1
  12    5   31 1
  13    5   32 1
  14    6   33 1
  15    6   34 1
  16    7    8 1
  17    7    9 2
  18    9   10 1
  19   10   11 ar
  20   10   15 ar
  21   11   12 ar
  22   11   35 1
  23   12   13 ar
  24   12   36 1
  25   13   14 ar
  26   13   37 1
  27   14   15 ar
  28   14   38 1
  29   16   17 2
  30   16   18 1
  31   18   19 ar
  32   18   23 ar
  33   19   20 ar
  34   19   28 1
  35   20   21 ar
  36   20   24 1
  37   21   22 ar
  38   21   39 1
  39   22   23 ar
  40   22   40 1
  41   23   41 1
  42   24   25 1
  43   24   26 1
  44   24   27 1

#	End of record

