#	Name: ASD01410912
#	Creating user name:	WinNT
#	Creation time:	15. 06. 2019 19:18

#	Modifying user name:	WinNT
#	Modification time:	15. 06. 2019 19:18

#	Program:	/corina/corina34_cracker 3.40 0067  02.08.2006

@<TRIPOS>MOLECULE
ASD01410912
  65   66    0    0    0
SMALL
NO_CHARGES


@<TRIPOS>ATOM
   1 C1             0.0955     1.6459    -0.0059 C.2     
   2 C2             0.1099     0.3199    -0.3653 C.2     
   3 C3             1.3537    -0.2361    -0.4481 C.2     
   4 S4             2.5742     0.9662    -0.0547 S.3     
   5 C5             1.3402     2.1901     0.2101 C.2     
   6 C6             1.5892     3.5297     0.5876 C.2     
   7 N7            -1.0836     2.3811     0.1235 N.am    
   8 C8            -1.7198     2.4311     1.3106 C.2     
   9 O9            -1.3252     1.7576     2.2389 O.2     
  10 C10           -1.6298     3.0987    -1.0311 C.3     
  11 C11           -2.4583     2.1543    -1.8634 C.2     
  12 N12           -3.0635     2.5969    -2.9834 N.am    
  13 O13           -2.5804     0.9959    -1.5255 O.2     
  14 C14            1.6242    -1.5969    -0.8025 C.1     
  15 C15            1.8459    -2.7126    -1.0930 C.1     
  16 C16            2.1239    -4.1115    -1.4572 C.3     
  17 C17            3.6348    -4.3523    -1.4400 C.3     
  18 C18            1.4472    -5.0446    -0.4511 C.3     
  19 C19            1.5788    -4.3914    -2.8591 C.3     
  20 C20           -2.9214     3.3237     1.4845 C.3     
  21 C21           -4.4290     1.3608     1.1430 C.3     
  22 C22           -4.0889     2.7732     0.6630 C.3     
  23 C23           -3.3141     3.3681     2.9626 C.3     
  24 C24           -3.6542     1.9558     3.4426 C.3     
  25 C25           -4.8217     1.4052     2.6211 C.3     
  26 C26           -5.1618    -0.0071     3.1011 C.3     
  27 O27            2.8573     3.9544     0.7724 O.3     
  28 O28            0.6602     4.3002     0.7460 O.2     
  29 C29           -3.8688     1.6788    -3.7926 C.3     
  30 C30           -5.2890     1.6125    -3.2272 C.3     
  31 C31           -3.9179     2.1811    -5.2369 C.3     
  32 H32           -0.7923    -0.2389    -0.5661 H       
  33 H33           -2.2550     3.9217    -0.6848 H       
  34 H34           -0.8119     3.4926    -1.6343 H       
  35 H35           -2.9658     3.5234    -3.2537 H       
  36 H36            4.0231    -4.1529    -0.4413 H       
  37 H37            3.8406    -5.3882    -1.7098 H       
  38 H38            4.1169    -3.6876    -2.1568 H       
  39 H39            0.3709    -4.8730    -0.4634 H       
  40 H40            1.6531    -6.0805    -0.7209 H       
  41 H41            1.8356    -4.8452     0.5476 H       
  42 H42            2.0609    -3.7267    -3.5759 H       
  43 H43            1.7847    -5.4273    -3.1289 H       
  44 H44            0.5025    -4.2198    -2.8714 H       
  45 H45           -2.6791     4.3299     1.1426 H       
  46 H46           -5.2607     0.9686     0.5578 H       
  47 H47           -3.5599     0.7152     1.0172 H       
  48 H48           -4.9581     3.4188     0.7888 H       
  49 H49           -3.8092     2.7416    -0.3900 H       
  50 H50           -2.4824     3.7603     3.5479 H       
  51 H51           -4.1833     4.0138     3.0884 H       
  52 H52           -2.7851     1.3101     3.3168 H       
  53 H53           -3.9340     1.9874     4.4956 H       
  54 H54           -5.6908     2.0509     2.7469 H       
  55 H55           -4.2926    -0.6528     2.9753 H       
  56 H56           -5.4415     0.0245     4.1541 H       
  57 H57           -5.9935    -0.3993     2.5158 H       
  58 H58            2.9273     4.8841     1.0288 H       
  59 H59           -3.4214     0.6852    -3.7684 H       
  60 H60           -5.2541     1.2547    -2.1982 H       
  61 H61           -5.7365     2.6061    -3.2514 H       
  62 H62           -5.8882     0.9294    -3.8292 H       
  63 H63           -2.9061     2.2283    -5.6397 H       
  64 H64           -4.5171     1.4980    -5.8390 H       
  65 H65           -4.3653     3.1747    -5.2611 H       
@<TRIPOS>BOND
   1    1    2 1
   2    1    5 2
   3    1    7 1
   4    2    3 2
   5    2   32 1
   6    3    4 1
   7    3   14 1
   8    4    5 1
   9    5    6 1
  10    6   27 1
  11    6   28 2
  12    7    8 am
  13    7   10 1
  14    8    9 2
  15    8   20 1
  16   10   11 1
  17   10   33 1
  18   10   34 1
  19   11   12 am
  20   11   13 2
  21   12   29 1
  22   12   35 1
  23   14   15 3
  24   15   16 1
  25   16   17 1
  26   16   18 1
  27   16   19 1
  28   17   36 1
  29   17   37 1
  30   17   38 1
  31   18   39 1
  32   18   40 1
  33   18   41 1
  34   19   42 1
  35   19   43 1
  36   19   44 1
  37   20   23 1
  38   20   22 1
  39   20   45 1
  40   21   22 1
  41   21   25 1
  42   21   46 1
  43   21   47 1
  44   22   48 1
  45   22   49 1
  46   23   24 1
  47   23   50 1
  48   23   51 1
  49   24   25 1
  50   24   52 1
  51   24   53 1
  52   25   26 1
  53   25   54 1
  54   26   55 1
  55   26   56 1
  56   26   57 1
  57   27   58 1
  58   29   30 1
  59   29   31 1
  60   29   59 1
  61   30   60 1
  62   30   61 1
  63   30   62 1
  64   31   63 1
  65   31   64 1
  66   31   65 1

#	End of record

