#	Name: ASD01880170
#	Creating user name:	WinNT
#	Creation time:	15. 06. 2019 19:40

#	Modifying user name:	WinNT
#	Modification time:	15. 06. 2019 19:40

#	Program:	/corina/corina34_cracker 3.40 0067  02.08.2006

@<TRIPOS>MOLECULE
ASD01880170
  72   75    0    0    0
SMALL
NO_CHARGES


@<TRIPOS>ATOM
   1 C1            -0.0166     1.3765     0.0096 C.ar    
   2 C2             0.0021    -0.0041     0.0020 C.ar    
   3 C3            -1.1907    -0.7221     0.0090 C.ar    
   4 C4            -2.4029    -0.0685     0.0241 C.ar    
   5 C5            -2.4432     1.3214     0.0324 C.ar    
   6 C6            -1.2399     2.0497     0.0307 C.ar    
   7 O7             1.1904    -0.6651    -0.0128 O.3     
   8 C8             1.1383    -2.0932    -0.0200 C.3     
   9 C9             2.5612    -2.6553    -0.0366 C.3     
  10 C10            5.0632    -6.8348    -0.0828 C.ar    
  11 C11            5.0833    -8.2234    -0.0904 C.ar    
  12 C12            6.2858    -8.8968    -0.1108 C.ar    
  13 C13            7.4840    -8.1815    -0.1241 C.ar    
  14 C14            7.4599    -6.7862    -0.1169 C.ar    
  15 C15            6.2536    -6.1196    -0.0961 C.ar    
  16 C16            8.7766    -8.9006    -0.1455 C.2     
  17 N17            8.9461   -10.2063    -0.1544 N.2     
  18 N18           10.1967   -10.4971    -0.1734 N.2     
  19 N19           10.9080    -9.4223    -0.1781 N.2     
  20 N20           10.0113    -8.3396    -0.1656 N.pl3   
  21 C21            1.2754     2.1522     0.0014 C.3     
  22 C22            1.6989     2.4224    -1.4437 C.3     
  23 C23            3.0106     3.2099    -1.4520 C.3     
  24 N24           -3.4727     2.2388     0.0479 N.pl3   
  25 C25           -2.9636     3.5085     0.0509 C.2     
  26 C26           -1.6219     3.4639     0.0416 C.2     
  27 C27           -4.8988     1.9036     0.0596 C.3     
  28 C28           -5.3814     1.7780     1.5060 C.3     
  29 C29           -5.1638     3.1063     2.2334 C.3     
  30 C30           -6.8708     1.4279     1.5182 C.3     
  31 C31           -4.5923     0.6742     2.2129 C.3     
  32 C32            2.5055    -4.1843    -0.0442 C.3     
  33 C33            3.9283    -4.7464    -0.0608 C.3     
  34 O34            3.8763    -6.1745    -0.0680 O.3     
  35 C35           -3.7870     4.7706     0.0666 C.3     
  36 H36           -1.1652    -1.8018     0.0023 H       
  37 H37           -3.3221    -0.6355     0.0290 H       
  38 H38            0.6201    -2.4423     0.8731 H       
  39 H39            0.6032    -2.4328    -0.9068 H       
  40 H40            3.0795    -2.3062    -0.9296 H       
  41 H41            3.0964    -2.3157     0.8502 H       
  42 H42            4.1557    -8.7763    -0.0801 H       
  43 H43            6.3008    -9.9767    -0.1160 H       
  44 H44            8.3852    -6.2294    -0.1268 H       
  45 H45            6.2342    -5.0398    -0.0904 H       
  46 H46           10.2290    -7.3943    -0.1658 H       
  47 H47            1.1338     3.0995     0.5217 H       
  48 H48            2.0498     1.5734     0.5048 H       
  49 H49            1.8405     1.4752    -1.9640 H       
  50 H50            0.9244     3.0012    -1.9471 H       
  51 H51            2.8690     4.1572    -0.9317 H       
  52 H52            3.7850     2.6312    -0.9487 H       
  53 H53            3.3123     3.4025    -2.4816 H       
  54 H54           -0.9512     4.3104     0.0418 H       
  55 H55           -5.4610     2.6900    -0.4440 H       
  56 H56           -5.0539     0.9573    -0.4586 H       
  57 H57           -5.7260     3.8927     1.7298 H       
  58 H58           -5.5076     3.0168     3.2639 H       
  59 H59           -4.1027     3.3557     2.2248 H       
  60 H60           -7.0258     0.4816     1.0000 H       
  61 H61           -7.2146     1.3384     2.5487 H       
  62 H62           -7.4330     2.2143     1.0146 H       
  63 H63           -3.5312     0.9235     2.2043 H       
  64 H64           -4.9361     0.5847     3.2434 H       
  65 H65           -4.7473    -0.2722     1.6947 H       
  66 H66            1.9872    -4.5334     0.8488 H       
  67 H67            1.9703    -4.5239    -0.9310 H       
  68 H68            4.4466    -4.3973    -0.9539 H       
  69 H69            4.4635    -4.4068     0.8260 H       
  70 H70           -3.9756     5.0685     1.0980 H       
  71 H71           -3.2451     5.5644    -0.4476 H       
  72 H72           -4.7358     4.5917    -0.4392 H       
@<TRIPOS>BOND
   1    1    2 ar
   2    1   21 1
   3    1    6 ar
   4    2    3 ar
   5    2    7 1
   6    3    4 ar
   7    3   36 1
   8    4    5 ar
   9    4   37 1
  10    5    6 ar
  11    5   24 1
  12    6   26 1
  13    7    8 1
  14    8    9 1
  15    8   38 1
  16    8   39 1
  17    9   32 1
  18    9   40 1
  19    9   41 1
  20   10   11 ar
  21   10   15 ar
  22   10   34 1
  23   11   12 ar
  24   11   42 1
  25   12   13 ar
  26   12   43 1
  27   13   14 ar
  28   13   16 1
  29   14   15 ar
  30   14   44 1
  31   15   45 1
  32   16   17 2
  33   16   20 1
  34   17   18 1
  35   18   19 2
  36   19   20 1
  37   20   46 1
  38   21   22 1
  39   21   47 1
  40   21   48 1
  41   22   23 1
  42   22   49 1
  43   22   50 1
  44   23   51 1
  45   23   52 1
  46   23   53 1
  47   24   25 1
  48   24   27 1
  49   25   26 2
  50   25   35 1
  51   26   54 1
  52   27   28 1
  53   27   55 1
  54   27   56 1
  55   28   29 1
  56   28   30 1
  57   28   31 1
  58   29   57 1
  59   29   58 1
  60   29   59 1
  61   30   60 1
  62   30   61 1
  63   30   62 1
  64   31   63 1
  65   31   64 1
  66   31   65 1
  67   32   33 1
  68   32   66 1
  69   32   67 1
  70   33   34 1
  71   33   68 1
  72   33   69 1
  73   35   70 1
  74   35   71 1
  75   35   72 1

#	End of record

