#	Name: ASD01920061
#	Creating user name:	WinNT
#	Creation time:	15. 06. 2019 20:11

#	Modifying user name:	WinNT
#	Modification time:	15. 06. 2019 20:11

#	Program:	/corina/corina34_cracker 3.40 0067  02.08.2006

@<TRIPOS>MOLECULE
ASD01920061
  34   36    0    0    0
SMALL
NO_CHARGES


@<TRIPOS>ATOM
   1 C1            -0.0230     1.3041    -0.0059 C.ar    
   2 N2             0.0759     0.1053     0.5379 N.ar    
   3 C3            -0.9601    -0.4605     1.1331 C.ar    
   4 C4            -2.1670     0.2221     1.1833 C.ar    
   5 C5            -2.2362     1.4873     0.5984 C.ar    
   6 N6            -1.1469     1.9903     0.0224 N.ar    
   7 C7            -3.5021     2.2614     0.6232 C.2     
   8 O8            -4.4893     1.7945     1.1557 O.2     
   9 N9            -3.5566     3.4822     0.0549 N.am    
  10 C10           -4.7763     4.1647    -0.0217 C.ar    
  11 C11           -4.8072     5.5481     0.0994 C.ar    
  12 C12           -5.9552     3.4595    -0.2247 C.ar    
  13 C13           -7.1587     4.1340    -0.3007 C.ar    
  14 C14           -7.1888     5.5163    -0.1741 C.ar    
  15 C15           -6.0104     6.2211     0.0238 C.ar    
  16 O16           -8.3733     6.1800    -0.2489 O.3     
  17 Cl17          -8.6330     3.2533    -0.5549 Cl      
  18 C18           -9.1589     6.2077     0.8570 C.ar    
  19 C19          -10.4208     6.7840     0.7897 C.ar    
  20 C20          -11.2127     6.8061     1.9247 C.ar    
  21 C21          -10.7111     6.2476     3.0932 C.ar    
  22 C22           -9.4460     5.6910     3.0871 C.ar    
  23 N23           -8.7175     5.6806     1.9872 N.ar    
  24 Cl24         -11.6623     6.2491     4.5454 Cl      
  25 Cl25           1.3701     1.9991    -0.7741 Cl      
  26 H26           -0.8683    -1.4419     1.5745 H       
  27 H27           -3.0307    -0.2146     1.6625 H       
  28 H28           -2.7507     3.8880    -0.3010 H       
  29 H29           -3.8900     6.0972     0.2532 H       
  30 H30           -5.9314     2.3843    -0.3234 H       
  31 H31           -6.0345     7.2963     0.1222 H       
  32 H32          -10.7792     7.2097    -0.1359 H       
  33 H33          -12.1980     7.2478     1.9023 H       
  34 H34           -9.0507     5.2553     3.9928 H       
@<TRIPOS>BOND
   1    1    2 ar
   2    1   25 1
   3    1    6 ar
   4    2    3 ar
   5    3    4 ar
   6    3   26 1
   7    4    5 ar
   8    4   27 1
   9    5    6 ar
  10    5    7 1
  11    7    8 2
  12    7    9 am
  13    9   10 1
  14    9   28 1
  15   10   11 ar
  16   10   12 ar
  17   11   15 ar
  18   11   29 1
  19   12   13 ar
  20   12   30 1
  21   13   14 ar
  22   13   17 1
  23   14   15 ar
  24   14   16 1
  25   15   31 1
  26   16   18 1
  27   18   19 ar
  28   18   23 ar
  29   19   20 ar
  30   19   32 1
  31   20   21 ar
  32   20   33 1
  33   21   22 ar
  34   21   24 1
  35   22   23 ar
  36   22   34 1

#	End of record

