#	Name: ASD03930032
#	Creating user name:	WinNT
#	Creation time:	15. 06. 2019 20:47

#	Modifying user name:	WinNT
#	Modification time:	15. 06. 2019 20:47

#	Program:	/corina/corina34_cracker 3.40 0067  02.08.2006

@<TRIPOS>MOLECULE
ASD03930032
  24   26    0    0    0
SMALL
NO_CHARGES


@<TRIPOS>ATOM
   1 C1            -0.0166     1.3723     0.0096 C.ar    
   2 C2             0.0021    -0.0041     0.0020 C.ar    
   3 C3             1.1994    -0.7090    -0.0021 C.ar    
   4 C4             2.3934    -0.0469     0.0008 C.ar    
   5 C5             2.3808     1.3644    -0.0148 C.ar    
   6 C6             1.1925     2.0772     0.0018 C.ar    
   7 C7             3.6948    -0.7960     0.0516 C.3     
   8 N8             4.7889    -0.0917    -0.6227 N.am    
   9 S9             5.1674     1.4641    -0.1380 S.o2    
  10 C10            3.5635     2.2388    -0.0693 C.2     
  11 S11            1.5447     3.7995     0.0061 S.3     
  12 C12            3.2765     3.5187    -0.0551 C.2     
  13 O13            5.6509     1.3818     1.1957 O.2     
  14 O14            5.8820     2.0734    -1.2045 O.2     
  15 C15            5.5385    -0.7390    -1.7022 C.3     
  16 Br16           1.1750    -2.5999    -0.0113 Br      
  17 H17           -0.9566     1.9040     0.0169 H       
  18 H18           -0.9319    -0.5464    -0.0004 H       
  19 H19            3.9688    -0.9525     1.0949 H       
  20 H20            3.5586    -1.7680    -0.4224 H       
  21 H21            4.0165     4.3050    -0.0778 H       
  22 H22            5.0591    -0.5239    -2.6572 H       
  23 H23            6.5598    -0.3582    -1.7144 H       
  24 H24            5.5544    -1.8165    -1.5381 H       
@<TRIPOS>BOND
   1    1    2 ar
   2    1    6 ar
   3    1   17 1
   4    2    3 ar
   5    2   18 1
   6    3    4 ar
   7    3   16 1
   8    4    5 ar
   9    4    7 1
  10    5    6 ar
  11    5   10 1
  12    6   11 1
  13    7    8 1
  14    7   19 1
  15    7   20 1
  16    8    9 am
  17    8   15 1
  18    9   10 1
  19    9   13 2
  20    9   14 2
  21   10   12 2
  22   11   12 1
  23   12   21 1
  24   15   22 1
  25   15   23 1
  26   15   24 1

#	End of record

