#	Name: ASD01870107
#	Creating user name:	WinNT
#	Creation time:	15. 06. 2019 19:38

#	Modifying user name:	WinNT
#	Modification time:	15. 06. 2019 19:38

#	Program:	/corina/corina34_cracker 3.40 0067  02.08.2006

@<TRIPOS>MOLECULE
ASD01870107
  42   43    0    0    0
SMALL
NO_CHARGES


@<TRIPOS>ATOM
   1 C1            -0.2884     1.4210     0.0799 C.ar    
   2 C2            -0.3121     0.0405     0.0874 C.ar    
   3 C3             0.8713    -0.6808     0.1200 C.ar    
   4 C4             2.0844    -0.0251     0.1451 C.ar    
   5 C5             2.1213     1.3713     0.1377 C.ar    
   6 C6             0.9226     2.0959     0.1048 C.ar    
   7 O7             0.9466     3.4531     0.0970 O.3     
   8 C8             1.1330     4.0545    -1.0939 C.2     
   9 N9             1.0705     5.3976    -1.1877 N.am    
  10 O10            1.3575     3.3862    -2.0836 O.2     
  11 C11            0.7998     6.2034     0.0055 C.3     
  12 C12            1.2732     6.0517    -2.4828 C.3     
  13 Cl13           0.8261    -2.4161     0.1297 Cl      
  14 C14            3.4156     2.0793     0.1645 C.2     
  15 O15            3.4438     3.2950     0.1580 O.2     
  16 N16            4.5665     1.3787     0.1961 N.am    
  17 C17            5.7943     2.0476     0.1476 C.ar    
  18 C18            5.9332     3.2913     0.7487 C.ar    
  19 C19            6.8795     1.4660    -0.4976 C.ar    
  20 C20            8.0907     2.1296    -0.5430 C.ar    
  21 C21            8.2233     3.3708     0.0526 C.ar    
  22 C22            7.1470     3.9492     0.6995 C.ar    
  23 Cl23           6.7136    -0.0921    -1.2449 Cl      
  24 C24           -0.0517     6.1928    -3.1871 C.2     
  25 O25           -1.0615     5.7886    -2.6611 O.2     
  26 O26           -0.1098     6.7677    -4.3986 O.3     
  27 N27            9.5221     4.0790     0.0022 N.pl3   
  28 O28           10.4725     3.5687    -0.5633 O.2     
  29 O29            9.6405     5.1721     0.5263 O.2     
  30 H30           -1.2144     1.9761     0.0499 H       
  31 H31           -1.2580    -0.4804     0.0683 H       
  32 H32            3.0043    -0.5904     0.1708 H       
  33 H33            1.7411     6.4633     0.4896 H       
  34 H34            0.2756     7.1146    -0.2827 H       
  35 H35            0.1811     5.6317     0.6973 H       
  36 H36            1.7089     7.0386    -2.3271 H       
  37 H37            1.9465     5.4493    -3.0926 H       
  38 H38            4.5435     0.4106     0.2525 H       
  39 H39            5.0930     3.7443     1.2540 H       
  40 H40            8.9346     1.6785    -1.0437 H       
  41 H41            7.2542     4.9186     1.1635 H       
  42 H42           -0.9819     6.8359    -4.8108 H       
@<TRIPOS>BOND
   1    1    2 ar
   2    1    6 ar
   3    1   30 1
   4    2    3 ar
   5    2   31 1
   6    3    4 ar
   7    3   13 1
   8    4    5 ar
   9    4   32 1
  10    5    6 ar
  11    5   14 1
  12    6    7 1
  13    7    8 1
  14    8    9 am
  15    8   10 2
  16    9   11 1
  17    9   12 1
  18   11   33 1
  19   11   34 1
  20   11   35 1
  21   12   24 1
  22   12   36 1
  23   12   37 1
  24   14   15 2
  25   14   16 am
  26   16   17 1
  27   16   38 1
  28   17   18 ar
  29   17   19 ar
  30   18   22 ar
  31   18   39 1
  32   19   20 ar
  33   19   23 1
  34   20   21 ar
  35   20   40 1
  36   21   22 ar
  37   21   27 1
  38   22   41 1
  39   24   25 2
  40   24   26 1
  41   26   42 1
  42   27   28 2
  43   27   29 2

#	End of record

