#	Name: ASD01883485
#	Creating user name:	WinNT
#	Creation time:	15. 06. 2019 19:46

#	Modifying user name:	WinNT
#	Modification time:	15. 06. 2019 19:46

#	Program:	/corina/corina34_cracker 3.40 0067  02.08.2006

@<TRIPOS>MOLECULE
ASD01883485
  55   58    0    0    0
SMALL
NO_CHARGES


@<TRIPOS>ATOM
   1 O1            -0.3259     2.1463    -0.0256 O.3     
   2 N2             5.4141     4.2717     1.3548 N.am    
   3 C3             6.0092     3.2668     2.0239 C.2     
   4 C4             6.4396     3.4645     3.3572 C.2     
   5 C5             6.2318     4.7194     3.9544 C.2     
   6 C6             5.6039     5.7302     3.2033 C.2     
   7 C7             5.2185     5.4859     1.9318 C.2     
   8 O8             6.1769     2.1875     1.4819 O.2     
   9 C9             7.0741     2.4063     4.0840 C.1     
  10 N10            7.5775     1.5669     4.6605 N.1     
  11 N11            6.6344     4.9552     5.2497 N.pl3   
  12 C12            5.6496     5.2658     6.2949 C.3     
  13 C13            6.0578     6.5712     6.9847 C.3     
  14 C14            7.4959     6.4467     7.4932 C.3     
  15 C15            8.4382     6.2102     6.3107 C.3     
  16 C16            8.0564     4.8951     5.6143 C.3     
  17 C17            4.9738     4.0535    -0.0253 C.3     
  18 C18            3.5558     3.5432    -0.0255 C.ar    
  19 C19            2.5011     4.4359    -0.0744 C.ar    
  20 C20            1.2003     3.9707    -0.0747 C.ar    
  21 C21            0.9528     2.6065    -0.0259 C.ar    
  22 C22            2.0128     1.7128     0.0232 C.ar    
  23 C23            3.3118     2.1829     0.0175 C.ar    
  24 C24            7.8894     7.7169     8.2024 C.ar    
  25 C25            8.2612     7.6786     9.5333 C.ar    
  26 C26            8.6221     8.8437    10.1838 C.ar    
  27 C27            8.6116    10.0470     9.5034 C.ar    
  28 C28            8.2407    10.0851     8.1723 C.ar    
  29 C29            7.8840     8.9194     7.5205 C.ar    
  30 C30           -0.5056     0.7296     0.0262 C.3     
  31 F31            0.0745     0.2285     1.1965 F       
  32 F32           -1.8727     0.4324     0.0191 F       
  33 F33            0.1054     0.1411    -1.0862 F       
  34 H34            5.4336     6.7023     3.6420 H       
  35 H35            4.7376     6.2695     1.3651 H       
  36 H36            4.6638     5.3831     5.8448 H       
  37 H37            5.6258     4.4579     7.0262 H       
  38 H38            5.9935     7.3943     6.2731 H       
  39 H39            5.3903     6.7630     7.8248 H       
  40 H40            7.5649     5.6080     8.1859 H       
  41 H41            8.3515     7.0367     5.6054 H       
  42 H42            9.4649     6.1449     6.6710 H       
  43 H43            8.2304     4.0590     6.2917 H       
  44 H44            8.6583     4.7702     4.7142 H       
  45 H45            5.0217     4.9935    -0.5749 H       
  46 H46            5.6239     3.3201    -0.5024 H       
  47 H47            2.6943     5.4978    -0.1120 H       
  48 H48            0.3768     4.6684    -0.1126 H       
  49 H49            1.8227     0.6504     0.0617 H       
  50 H50            4.1374     1.4876     0.0553 H       
  51 H51            8.2694     6.7386    10.0649 H       
  52 H52            8.9119     8.8140    11.2238 H       
  53 H53            8.8929    10.9573    10.0118 H       
  54 H54            8.2322    11.0252     7.6408 H       
  55 H55            7.5942     8.9491     6.4806 H       
@<TRIPOS>BOND
   1    1   30 1
   2    1   21 1
   3    2    3 am
   4    2   17 1
   5    2    7 1
   6    3    4 1
   7    3    8 2
   8    4    5 2
   9    4    9 1
  10    5    6 1
  11    5   11 1
  12    6    7 2
  13    6   34 1
  14    7   35 1
  15    9   10 3
  16   11   12 1
  17   11   16 1
  18   12   13 1
  19   12   36 1
  20   12   37 1
  21   13   14 1
  22   13   38 1
  23   13   39 1
  24   14   15 1
  25   14   24 1
  26   14   40 1
  27   15   16 1
  28   15   41 1
  29   15   42 1
  30   16   43 1
  31   16   44 1
  32   17   18 1
  33   17   45 1
  34   17   46 1
  35   18   19 ar
  36   18   23 ar
  37   19   20 ar
  38   19   47 1
  39   20   21 ar
  40   20   48 1
  41   21   22 ar
  42   22   23 ar
  43   22   49 1
  44   23   50 1
  45   24   25 ar
  46   24   29 ar
  47   25   26 ar
  48   25   51 1
  49   26   27 ar
  50   26   52 1
  51   27   28 ar
  52   27   53 1
  53   28   29 ar
  54   28   54 1
  55   29   55 1
  56   30   31 1
  57   30   32 1
  58   30   33 1

#	End of record

