#	Name: ASD01914229
#	Creating user name:	WinNT
#	Creation time:	15. 06. 2019 20:03

#	Modifying user name:	WinNT
#	Modification time:	15. 06. 2019 20:03

#	Program:	/corina/corina34_cracker 3.40 0067  02.08.2006

@<TRIPOS>MOLECULE
ASD01914229
  32   34    0    0    0
SMALL
NO_CHARGES


@<TRIPOS>ATOM
   1 C1            -0.0170     1.4051     0.0098 C.2     
   2 C2             0.0021    -0.0041     0.0020 C.2     
   3 C3             1.1968    -0.6541    -0.0129 C.2     
   4 C4             2.3912     0.0853    -0.0203 C.2     
   5 C5             2.3569     1.4343    -0.0123 C.2     
   6 N6             1.1651     2.0992     0.0022 N.pl3   
   7 N7            -1.0090     2.2842     0.0293 N.2     
   8 C8            -0.5004     3.5187     0.0287 C.2     
   9 C9             0.8476     3.4301     0.0128 C.2     
  10 C10           -1.2972     4.7977     0.0476 C.3     
  11 C11           -2.2868     4.7994    -1.1192 C.3     
  12 C12           -3.0651     6.0487    -1.1008 C.1     
  13 C13           -3.6858     7.0450    -1.0861 C.1     
  14 C14           -4.4430     8.2604    -1.0682 C.ar    
  15 C15           -5.4136     8.4852    -2.0452 C.ar    
  16 C16           -6.1372     9.6635    -2.0154 C.ar    
  17 C17           -5.8674    10.5825    -1.0077 C.ar    
  18 C18           -4.8896    10.2942    -0.0699 C.ar    
  19 N19           -4.2192     9.1614    -0.1188 N.ar    
  20 F20           -6.5519    11.7455    -0.9441 F       
  21 H21           -0.9225    -0.5622     0.0082 H       
  22 H22            1.2270    -1.7337    -0.0186 H       
  23 H23            3.3412    -0.4283    -0.0321 H       
  24 H24            3.2812     1.9930    -0.0178 H       
  25 H25            1.5443     4.2554     0.0107 H       
  26 H26           -1.8439     4.8714     0.9877 H       
  27 H27           -0.6219     5.6480    -0.0476 H       
  28 H28           -1.7402     4.7257    -2.0594 H       
  29 H29           -2.9622     3.9491    -1.0240 H       
  30 H30           -5.5970     7.7494    -2.8142 H       
  31 H31           -6.8945     9.8654    -2.7585 H       
  32 H32           -4.6773    11.0057     0.7144 H       
@<TRIPOS>BOND
   1    1    2 1
   2    1    6 1
   3    1    7 2
   4    2    3 2
   5    2   21 1
   6    3    4 1
   7    3   22 1
   8    4    5 2
   9    4   23 1
  10    5    6 1
  11    5   24 1
  12    6    9 1
  13    7    8 1
  14    8    9 2
  15    8   10 1
  16    9   25 1
  17   10   11 1
  18   10   26 1
  19   10   27 1
  20   11   12 1
  21   11   28 1
  22   11   29 1
  23   12   13 3
  24   13   14 1
  25   14   15 ar
  26   14   19 ar
  27   15   16 ar
  28   15   30 1
  29   16   17 ar
  30   16   31 1
  31   17   18 ar
  32   17   20 1
  33   18   19 ar
  34   18   32 1

#	End of record

