#	Name: ASD07931813
#	Creating user name:	WinNT
#	Creation time:	15. 06. 2019 21:13

#	Modifying user name:	WinNT
#	Modification time:	15. 06. 2019 21:13

#	Program:	/corina/corina34_cracker 3.40 0067  02.08.2006

@<TRIPOS>MOLECULE
ASD07931813
  62   65    0    0    0
SMALL
NO_CHARGES


@<TRIPOS>ATOM
   1 C1            -0.0180     1.4754     0.0102 C.2     
   2 C2             0.0021    -0.0041     0.0020 C.2     
   3 N3             1.1814     2.1509     0.0023 N.am    
   4 N4             1.1194    -0.6400     0.4288 N.am    
   5 C5             2.2493     0.1650     0.9143 C.3     
   6 C6             2.4261     1.3707    -0.0208 C.3     
   7 C7            -1.2008     2.1485     0.0195 C.2     
   8 C8            -1.2247     3.5486     0.0291 C.2     
   9 C9            -0.0458     4.2425     0.0303 C.2     
  10 C10            1.2139     3.4948     0.0143 C.2     
  11 O11           -0.9642    -0.6358    -0.3794 O.2     
  12 O12            2.2807     4.0852     0.0118 O.2     
  13 C13            1.2002    -2.1026     0.4064 C.3     
  14 O14            3.1425    -2.1405    -1.0739 O.3     
  15 C15            1.7676    -2.5615    -0.9383 C.3     
  16 C16            1.8191    -4.1041    -1.0021 C.3     
  17 C17            3.1254    -4.4047    -1.7704 C.3     
  18 C18            3.7087    -3.0082    -2.0801 C.3     
  19 C19            5.2113    -3.0307    -1.9682 C.ar    
  20 C20            5.9891    -3.0599    -3.1106 C.ar    
  21 C21            7.3675    -3.0805    -3.0079 C.ar    
  22 C22            7.9681    -3.0715    -1.7629 C.ar    
  23 C23            7.1903    -3.0414    -0.6205 C.ar    
  24 C24            5.8120    -3.0163    -0.7232 C.ar    
  25 C25            9.4708    -3.0950    -1.6510 C.3     
  26 C26           10.0035    -1.6608    -1.6352 C.3     
  27 F27            9.8401    -3.7427    -0.4672 F       
  28 F28           10.0092    -3.7805    -2.7452 F       
  29 F29            9.4650    -0.9753    -0.5410 F       
  30 F30           11.3985    -1.6827    -1.5313 F       
  31 F31            9.6341    -1.0132    -2.8190 F       
  32 C32            0.4239     6.4402     1.0348 C.2     
  33 N33            0.2552     7.6848     0.6804 N.2     
  34 C34           -0.3161     7.7283    -0.5326 C.2     
  35 C35           -0.5113     6.4636    -0.9513 C.2     
  36 N36           -0.0431     5.6402     0.0404 N.pl3   
  37 C37           -0.6774     8.9771    -1.2948 C.3     
  38 H38            2.0426     0.5136     1.9261 H       
  39 H39            3.1572    -0.4381     0.9099 H       
  40 H40            2.6247     1.0242    -1.0350 H       
  41 H41            3.2543     1.9881     0.3270 H       
  42 H42           -2.1297     1.5976     0.0190 H       
  43 H43           -2.1668     4.0767     0.0353 H       
  44 H44            1.8522    -2.4428     1.2110 H       
  45 H45            0.2042    -2.5236     0.5432 H       
  46 H46            1.1675    -2.1676    -1.7586 H       
  47 H47            1.8606    -4.5266     0.0019 H       
  48 H48            0.9581    -4.4928    -1.5458 H       
  49 H49            3.8127    -4.9759    -1.1464 H       
  50 H50            2.9102    -4.9421    -2.6940 H       
  51 H51            3.4063    -2.6829    -3.0755 H       
  52 H52            5.5199    -3.0669    -4.0833 H       
  53 H53            7.9752    -3.1041    -3.9004 H       
  54 H54            7.6595    -3.0346     0.3522 H       
  55 H55            5.2044    -2.9891     0.1692 H       
  56 H56            0.8650     6.1025     1.9610 H       
  57 H57           -0.9521     6.1566    -1.8883 H       
  58 H58            0.1651     9.2797    -1.9167 H       
  59 H59           -1.5430     8.7793    -1.9270 H       
  60 H60           -0.9156     9.7756    -0.5921 H       
  61 Cl61          16.3985    14.7756     6.9610 Cl      
  62 H62           16.3985    16.1456     6.9610 H       
@<TRIPOS>BOND
   1    1    2 1
   2    1    3 1
   3    1    7 2
   4    2    4 am
   5    2   11 2
   6    3    6 1
   7    3   10 am
   8    4    5 1
   9    4   13 1
  10    5    6 1
  11    5   38 1
  12    5   39 1
  13    6   40 1
  14    6   41 1
  15    7    8 1
  16    7   42 1
  17    8    9 2
  18    8   43 1
  19    9   10 1
  20    9   36 1
  21   10   12 2
  22   13   15 1
  23   13   44 1
  24   13   45 1
  25   14   15 1
  26   14   18 1
  27   15   16 1
  28   15   46 1
  29   16   17 1
  30   16   47 1
  31   16   48 1
  32   17   18 1
  33   17   49 1
  34   17   50 1
  35   18   19 1
  36   18   51 1
  37   19   20 ar
  38   19   24 ar
  39   20   21 ar
  40   20   52 1
  41   21   22 ar
  42   21   53 1
  43   22   23 ar
  44   22   25 1
  45   23   24 ar
  46   23   54 1
  47   24   55 1
  48   25   26 1
  49   25   27 1
  50   25   28 1
  51   26   29 1
  52   26   30 1
  53   26   31 1
  54   32   33 2
  55   32   36 1
  56   32   56 1
  57   33   34 1
  58   34   35 2
  59   34   37 1
  60   35   36 1
  61   35   57 1
  62   37   58 1
  63   37   59 1
  64   37   60 1
  65   61   62 1

#	End of record

