#	Name: ASD03930118
#	Creating user name:	WinNT
#	Creation time:	15. 06. 2019 20:47

#	Modifying user name:	WinNT
#	Modification time:	15. 06. 2019 20:47

#	Program:	/corina/corina34_cracker 3.40 0067  02.08.2006

@<TRIPOS>MOLECULE
ASD03930118
  55   58    0    0    0
SMALL
NO_CHARGES


@<TRIPOS>ATOM
   1 C1            -0.0167     1.3779     0.0096 C.ar    
   2 C2             0.0021    -0.0041     0.0020 C.ar    
   3 C3             1.2084    -0.6771    -0.0131 C.ar    
   4 C4             2.3998     0.0283    -0.0202 C.ar    
   5 C5             2.3810     1.4107    -0.0126 C.ar    
   6 C6             1.1710     2.0835     0.0021 C.ar    
   7 C7             3.8311    -0.4638    -0.0359 C.3     
   8 C8             4.6718     0.7530    -0.4773 C.3     
   9 C9             3.7985     1.9416    -0.0226 C.3     
  10 N10            5.9671     0.7668     0.2070 N.am    
  11 C11           -1.2922    -0.7760     0.0107 C.3     
  12 N12           -1.7253    -1.0187    -1.3676 N.pl3   
  13 N13           -1.9198    -0.0434    -2.3542 N.2     
  14 C14           -2.3054    -0.6430    -3.4513 C.2     
  15 C15           -2.3688    -2.0173    -3.1989 C.2     
  16 C16           -2.0018    -2.2218    -1.9127 C.2     
  17 C17           -2.6264     0.0307    -4.7605 C.3     
  18 F18           -2.3399     1.3967    -4.6645 F       
  19 F19           -1.8537    -0.5373    -5.7790 F       
  20 F20           -3.9835    -0.1417    -5.0533 F       
  21 S21            7.3153     1.3149    -0.5832 S.o2    
  22 O22            8.3863     1.2343     0.3471 O.2     
  23 O23            7.3323     0.6641    -1.8463 O.2     
  24 C24            7.0678     3.0286    -0.9099 C.ar    
  25 C25           -2.7690    -3.0826    -4.1869 C.3     
  26 O26           -2.7107    -4.3635    -3.5560 O.3     
  27 C27            7.8804     3.9709    -0.3103 C.ar    
  28 C28            7.6867     5.3160    -0.5662 C.ar    
  29 C29            6.6797     5.7211    -1.4223 C.ar    
  30 C30            5.8638     4.7825    -2.0242 C.ar    
  31 C31            6.0600     3.4323    -1.7740 C.ar    
  32 O32            5.2588     2.5071    -2.3647 O.3     
  33 C33            4.2339     2.9957    -3.2324 C.3     
  34 H34           -0.9589     1.9056     0.0170 H       
  35 H35            1.2222    -1.7570    -0.0191 H       
  36 H36            1.1556     3.1633     0.0076 H       
  37 H37            4.1303    -0.7888     0.9606 H       
  38 H38            3.9428    -1.2797    -0.7500 H       
  39 H39            4.8039     0.7608    -1.5592 H       
  40 H40            3.8878     2.7681    -0.7277 H       
  41 H41            4.0889     2.2636     0.9774 H       
  42 H42            6.0351     0.4550     1.1230 H       
  43 H43           -1.1433    -1.7292     0.5180 H       
  44 H44           -2.0549    -0.2005     0.5353 H       
  45 H45           -1.9472    -3.1762    -1.4101 H       
  46 H46           -3.7852    -2.8940    -4.5330 H       
  47 H47           -2.0866    -3.0648    -5.0367 H       
  48 H48           -2.9562    -5.0984    -4.1345 H       
  49 H49            8.6676     3.6569     0.3591 H       
  50 H50            8.3230     6.0513    -0.0962 H       
  51 H51            6.5304     6.7722    -1.6206 H       
  52 H52            5.0769     5.0995    -2.6926 H       
  53 H53            3.5642     3.6482    -2.6722 H       
  54 H54            4.6869     3.5560    -4.0503 H       
  55 H55            3.6689     2.1557    -3.6364 H       
@<TRIPOS>BOND
   1    1    2 ar
   2    1    6 ar
   3    1   34 1
   4    2    3 ar
   5    2   11 1
   6    3    4 ar
   7    3   35 1
   8    4    5 ar
   9    4    7 1
  10    5    6 ar
  11    5    9 1
  12    6   36 1
  13    7    8 1
  14    7   37 1
  15    7   38 1
  16    8    9 1
  17    8   10 1
  18    8   39 1
  19    9   40 1
  20    9   41 1
  21   10   21 am
  22   10   42 1
  23   11   12 1
  24   11   43 1
  25   11   44 1
  26   12   13 1
  27   12   16 1
  28   13   14 2
  29   14   15 1
  30   14   17 1
  31   15   16 2
  32   15   25 1
  33   16   45 1
  34   17   18 1
  35   17   19 1
  36   17   20 1
  37   21   22 2
  38   21   23 2
  39   21   24 1
  40   24   27 ar
  41   24   31 ar
  42   25   26 1
  43   25   46 1
  44   25   47 1
  45   26   48 1
  46   27   28 ar
  47   27   49 1
  48   28   29 ar
  49   28   50 1
  50   29   30 ar
  51   29   51 1
  52   30   31 ar
  53   30   52 1
  54   31   32 1
  55   32   33 1
  56   33   53 1
  57   33   54 1
  58   33   55 1

#	End of record

