#	Name: ASD04880055
#	Creating user name:	WinNT
#	Creation time:	15. 06. 2019 20:52

#	Modifying user name:	WinNT
#	Modification time:	15. 06. 2019 20:52

#	Program:	/corina/corina34_cracker 3.40 0067  02.08.2006

@<TRIPOS>MOLECULE
ASD04880055
  44   47    0    0    0
SMALL
NO_CHARGES


@<TRIPOS>ATOM
   1 O1            -0.0885     1.9035     0.0806 O.3     
   2 C2            -0.4126     3.2047     0.1443 C.2     
   3 N3             0.7112     3.9485     0.1487 N.am    
   4 C4             1.7944     3.0711     0.0846 C.ar    
   5 C5             1.2600     1.7807     0.0424 C.ar    
   6 C6             3.1635     3.2573     0.0591 C.ar    
   7 C7             4.0113     2.1496    -0.0090 C.ar    
   8 C8             3.4711     0.8610    -0.0510 C.ar    
   9 C9             2.1057     0.6817    -0.0260 C.ar    
  10 O10           -1.5452     3.6443     0.1908 O.2     
  11 C11            5.4751     2.3392    -0.0372 C.2     
  12 O12            6.2144     1.3759     0.0299 O.2     
  13 N13            5.9921     3.5798    -0.1372 N.am    
  14 N14            5.2604     4.7494    -0.3327 N.2     
  15 C15            5.9803     5.8163    -0.3958 C.2     
  16 C16            7.4387     5.4518    -0.2328 C.3     
  17 C17            7.4209     3.9211    -0.0514 C.3     
  18 C18            5.4620     7.1817    -0.5961 C.ar    
  19 C19            4.0878     7.3961    -0.7344 C.ar    
  20 C20            3.6072     8.6781    -0.9215 C.ar    
  21 C21            4.4920     9.7536    -0.9720 C.ar    
  22 C22            5.8557     9.5413    -0.8349 C.ar    
  23 C23            6.3425     8.2651    -0.6425 C.ar    
  24 O24            4.0173    11.0140    -1.1566 O.3     
  25 C25            4.9793    12.0699    -1.1984 C.3     
  26 O26            2.2708     8.8903    -1.0568 O.3     
  27 C27            1.4222     7.7422    -0.9954 C.3     
  28 H28            0.7585     4.9165     0.1887 H       
  29 H29            3.5760     4.2549     0.0914 H       
  30 H30            4.1260     0.0038    -0.1041 H       
  31 H31            1.6923    -0.3155    -0.0586 H       
  32 H32            8.0038     5.7286    -1.1228 H       
  33 H33            7.8565     5.9330     0.6515 H       
  34 H34            7.8238     3.6436     0.9226 H       
  35 H35            7.9799     3.4355    -0.8513 H       
  36 H36            3.4031     6.5617    -0.6954 H       
  37 H37            6.5378    10.3777    -0.8746 H       
  38 H38            7.4045     8.1031    -0.5315 H       
  39 H39            5.5284    12.0987    -0.2573 H       
  40 H40            5.6746    11.8956    -2.0196 H       
  41 H41            4.4686    13.0208    -1.3504 H       
  42 H42            0.3839     8.0509    -1.1171 H       
  43 H43            1.6908     7.0488    -1.7924 H       
  44 H44            1.5445     7.2512    -0.0300 H       
@<TRIPOS>BOND
   1    1    2 1
   2    1    5 1
   3    2    3 am
   4    2   10 2
   5    3    4 1
   6    3   28 1
   7    4    5 ar
   8    4    6 ar
   9    5    9 ar
  10    6    7 ar
  11    6   29 1
  12    7    8 ar
  13    7   11 1
  14    8    9 ar
  15    8   30 1
  16    9   31 1
  17   11   12 2
  18   11   13 am
  19   13   14 1
  20   13   17 1
  21   14   15 2
  22   15   16 1
  23   15   18 1
  24   16   17 1
  25   16   32 1
  26   16   33 1
  27   17   34 1
  28   17   35 1
  29   18   19 ar
  30   18   23 ar
  31   19   20 ar
  32   19   36 1
  33   20   21 ar
  34   20   26 1
  35   21   22 ar
  36   21   24 1
  37   22   23 ar
  38   22   37 1
  39   23   38 1
  40   24   25 1
  41   25   39 1
  42   25   40 1
  43   25   41 1
  44   26   27 1
  45   27   42 1
  46   27   43 1
  47   27   44 1

#	End of record

