#	Name: ASD04880137
#	Creating user name:	WinNT
#	Creation time:	15. 06. 2019 20:52

#	Modifying user name:	WinNT
#	Modification time:	15. 06. 2019 20:52

#	Program:	/corina/corina34_cracker 3.40 0067  02.08.2006

@<TRIPOS>MOLECULE
ASD04880137
  50   52    0    0    0
SMALL
NO_CHARGES


@<TRIPOS>ATOM
   1 C1            -0.0144     1.2118     0.0087 C.2     
   2 O2             0.0579    -0.0018    -0.0140 O.2     
   3 C3             1.2186     2.0262    -0.0194 C.ar    
   4 C4             2.4678     1.4100     0.0723 C.ar    
   5 C5             3.6162     2.1775     0.0450 C.ar    
   6 C6             3.5284     3.5557    -0.0728 C.ar    
   7 C7             2.2928     4.1704    -0.1639 C.ar    
   8 C8             1.1389     3.4142    -0.1435 C.ar    
   9 C9             4.7845     4.3880    -0.1011 C.3     
  10 F10            4.4456     5.7396    -0.2248 F       
  11 F11            5.4998     4.1932     1.0854 F       
  12 F12            5.5741     4.0036    -1.1901 F       
  13 F13            4.8266     1.5839     0.1335 F       
  14 N14           -1.2192     1.8143     0.0539 N.am    
  15 N15           -1.4358     3.1834     0.1955 N.2     
  16 C16           -2.6794     3.5207     0.2115 C.2     
  17 C17           -3.5395     2.2856     0.0670 C.3     
  18 C18           -2.5204     1.1343    -0.0448 C.3     
  19 C19           -4.4289     2.1038     1.2986 C.3     
  20 C20           -4.3892     2.3689    -1.2026 C.3     
  21 C21           -3.1854     4.8983     0.3495 C.ar    
  22 C22           -2.2902     5.9642     0.4761 C.ar    
  23 C23           -2.7700     7.2537     0.6046 C.ar    
  24 C24           -4.1436     7.4892     0.6078 C.ar    
  25 C25           -5.0323     6.4318     0.4822 C.ar    
  26 C26           -4.5608     5.1425     0.3482 C.ar    
  27 O27           -4.6135     8.7583     0.7349 O.3     
  28 C28           -6.0324     8.9282     0.7304 C.3     
  29 O29           -1.9017     8.2930     0.7285 O.3     
  30 C30           -0.5078     7.9787     0.7178 C.3     
  31 H31            2.5363     0.3361     0.1648 H       
  32 H32            2.2312     5.2448    -0.2551 H       
  33 H33            0.1752     3.8960    -0.2193 H       
  34 H34           -2.6162     0.6267    -1.0046 H       
  35 H35           -2.6485     0.4300     0.7772 H       
  36 H36           -5.0935     2.9622     1.3967 H       
  37 H37           -5.0218     1.1960     1.1878 H       
  38 H38           -3.8049     2.0239     2.1888 H       
  39 H39           -3.7373     2.4751    -2.0698 H       
  40 H40           -4.9823     1.4599    -1.3032 H       
  41 H41           -5.0533     3.2309    -1.1395 H       
  42 H42           -1.2259     5.7804     0.4738 H       
  43 H43           -6.0960     6.6188     0.4856 H       
  44 H44           -5.2550     4.3215     0.2460 H       
  45 H45           -6.4397     8.5579    -0.2104 H       
  46 H46           -6.4677     8.3704     1.5595 H       
  47 H47           -6.2720     9.9861     0.8387 H       
  48 H48           -0.2804     7.3069     1.5455 H       
  49 H49           -0.2519     7.4939    -0.2244 H       
  50 H50            0.0722     8.8954     0.8240 H       
@<TRIPOS>BOND
   1    1    2 2
   2    1    3 1
   3    1   14 am
   4    3    4 ar
   5    3    8 ar
   6    4    5 ar
   7    4   31 1
   8    5    6 ar
   9    5   13 1
  10    6    7 ar
  11    6    9 1
  12    7    8 ar
  13    7   32 1
  14    8   33 1
  15    9   10 1
  16    9   11 1
  17    9   12 1
  18   14   15 1
  19   14   18 1
  20   15   16 2
  21   16   17 1
  22   16   21 1
  23   17   18 1
  24   17   19 1
  25   17   20 1
  26   18   34 1
  27   18   35 1
  28   19   36 1
  29   19   37 1
  30   19   38 1
  31   20   39 1
  32   20   40 1
  33   20   41 1
  34   21   22 ar
  35   21   26 ar
  36   22   23 ar
  37   22   42 1
  38   23   24 ar
  39   23   29 1
  40   24   25 ar
  41   24   27 1
  42   25   26 ar
  43   25   43 1
  44   26   44 1
  45   27   28 1
  46   28   45 1
  47   28   46 1
  48   28   47 1
  49   29   30 1
  50   30   48 1
  51   30   49 1
  52   30   50 1

#	End of record

