#	Name: ASD00431338
#	Creating user name:	WinNT
#	Creation time:	15. 06. 2019 18:35

#	Modifying user name:	WinNT
#	Modification time:	15. 06. 2019 18:35

#	Program:	/corina/corina34_cracker 3.40 0067  02.08.2006

@<TRIPOS>MOLECULE
ASD00431338
  54   58    0    0    0
SMALL
NO_CHARGES


@<TRIPOS>ATOM
   1 C1            -0.3949     1.3012    -0.1663 C.2     
   2 N2            -0.4419    -0.0430    -0.1928 N.am    
   3 C3             0.7912    -0.5680    -0.3092 C.2     
   4 C4             1.7704     0.5378    -0.3672 C.ar    
   5 C5             3.1497     0.6041    -0.4822 C.ar    
   6 C6             3.7786     1.8391    -0.5072 C.ar    
   7 C7             3.0395     3.0038    -0.4181 C.ar    
   8 C8             1.6591     2.9529    -0.3027 C.ar    
   9 C9             1.0168     1.7254    -0.2764 C.ar    
  10 O10           -1.3525     2.0422    -0.0729 O.2     
  11 O11            1.0557    -1.7523    -0.3578 O.2     
  12 C12           -1.6736    -0.8313    -0.1057 C.3     
  13 C13           -1.8228    -1.6852    -1.3665 C.3     
  14 O14           -0.5694    -2.4720     1.4873 O.3     
  15 N15           -0.8413    -3.0788     2.5017 N.2     
  16 C16           -2.0655    -2.7990     2.8779 C.2     
  17 N17           -2.5690    -1.9240     1.9753 N.2     
  18 C18           -1.6118    -1.7279     1.1039 C.2     
  19 S19           -4.4109    -2.9541     4.5572 S.3     
  20 C20           -4.2583    -3.9923     5.9067 C.2     
  21 N21           -3.0797    -4.5350     5.9264 N.2     
  22 C22           -2.2537    -4.2089     4.9572 C.2     
  23 C23           -2.7639    -3.3369     4.0621 C.2     
  24 O24           -5.2288    -4.2164     6.8241 O.3     
  25 C25           -4.9942    -5.1472     7.7870 C.ar    
  26 C26           -4.0204    -4.9204     8.7486 C.ar    
  27 C27           -3.7821    -5.8660     9.7267 C.ar    
  28 C28           -4.5163    -7.0427     9.7472 C.ar    
  29 C29           -5.4897    -7.2699     8.7855 C.ar    
  30 C30           -5.7326    -6.3214     7.8113 C.ar    
  31 O31           -4.2813    -7.9739    10.7098 O.3     
  32 C32           -5.1275    -9.1254    10.7189 C.3     
  33 C33           -4.4161   -10.2754    11.4346 C.3     
  34 C34           -6.4293    -8.7959    11.4521 C.3     
  35 H35            3.7323    -0.3026    -0.5518 H       
  36 H36            4.8536     1.8917    -0.5965 H       
  37 H37            3.5410     3.9600    -0.4383 H       
  38 H38            1.0867     3.8661    -0.2331 H       
  39 H39           -2.5286    -0.1609    -0.0178 H       
  40 H40           -2.7393    -2.2717    -1.3017 H       
  41 H41           -1.8675    -1.0367    -2.2414 H       
  42 H42           -0.9678    -2.3556    -1.4545 H       
  43 H43           -1.2515    -4.6047     4.8836 H       
  44 H44           -3.4483    -4.0045     8.7322 H       
  45 H45           -3.0240    -5.6894    10.4753 H       
  46 H46           -6.0607    -8.1864     8.8011 H       
  47 H47           -6.4939    -6.4962     7.0654 H       
  48 H48           -5.3523    -9.4192     9.6936 H       
  49 H49           -4.1913    -9.9816    12.4600 H       
  50 H50           -5.0615   -11.1537    11.4415 H       
  51 H51           -3.4886   -10.5101    10.9123 H       
  52 H52           -6.9362    -7.9766    10.9421 H       
  53 H53           -7.0748    -9.6742    11.4590 H       
  54 H54           -6.2046    -8.5021    12.4774 H       
@<TRIPOS>BOND
   1    1    2 am
   2    1    9 1
   3    1   10 2
   4    2    3 am
   5    2   12 1
   6    3    4 1
   7    3   11 2
   8    4    5 ar
   9    4    9 ar
  10    5    6 ar
  11    5   35 1
  12    6    7 ar
  13    6   36 1
  14    7    8 ar
  15    7   37 1
  16    8    9 ar
  17    8   38 1
  18   12   13 1
  19   12   18 1
  20   12   39 1
  21   13   40 1
  22   13   41 1
  23   13   42 1
  24   14   15 1
  25   14   18 1
  26   15   16 2
  27   16   17 1
  28   16   23 1
  29   17   18 2
  30   19   20 1
  31   19   23 1
  32   20   21 2
  33   20   24 1
  34   21   22 1
  35   22   23 2
  36   22   43 1
  37   24   25 1
  38   25   26 ar
  39   25   30 ar
  40   26   27 ar
  41   26   44 1
  42   27   28 ar
  43   27   45 1
  44   28   29 ar
  45   28   31 1
  46   29   30 ar
  47   29   46 1
  48   30   47 1
  49   31   32 1
  50   32   33 1
  51   32   34 1
  52   32   48 1
  53   33   49 1
  54   33   50 1
  55   33   51 1
  56   34   52 1
  57   34   53 1
  58   34   54 1

#	End of record

