#	Name: ASD01881087
#	Creating user name:	WinNT
#	Creation time:	15. 06. 2019 19:42

#	Modifying user name:	WinNT
#	Modification time:	15. 06. 2019 19:42

#	Program:	/corina/corina34_cracker 3.40 0067  02.08.2006

@<TRIPOS>MOLECULE
ASD01881087
  50   53    0    0    0
SMALL
NO_CHARGES


@<TRIPOS>ATOM
   1 C1            -0.0169     1.3950     0.0097 C.ar    
   2 C2             0.0021    -0.0041     0.0020 C.ar    
   3 C3             1.2092    -0.6926    -0.0132 C.ar    
   4 C4             2.4034     0.0239    -0.0207 C.ar    
   5 C5             2.3732     1.4391    -0.0128 C.ar    
   6 C6             1.1476     2.1094     0.0024 C.ar    
   7 C7             3.7068    -0.6441    -0.0361 C.2     
   8 C8             4.8269     0.0960    -0.0424 C.2     
   9 N9             4.8013     1.4615    -0.0345 N.am    
  10 C10            3.6492     2.1602    -0.0207 C.2     
  11 C11            6.0710     2.1922    -0.0418 C.3     
  12 C12            6.5001     2.4548    -1.4867 C.3     
  13 C13            7.8261     3.2179    -1.4943 C.3     
  14 O14            3.6680     3.3782    -0.0147 O.2     
  15 Cl15           1.1045     3.8448     0.0122 Cl      
  16 C16           -1.2749    -0.7575     0.0106 C.ar    
  17 C17           -2.4897    -0.0732     0.0263 C.ar    
  18 C18           -3.6755    -0.7766     0.0343 C.ar    
  19 C19           -3.6608    -2.1651     0.0268 C.ar    
  20 C20           -2.4526    -2.8495     0.0116 C.ar    
  21 C21           -1.2636    -2.1517    -0.0027 C.ar    
  22 O22           -4.8308    -2.8554     0.0347 O.3     
  23 C23           -4.7426    -4.2817     0.0262 C.3     
  24 C24           -6.1297    -4.8708     0.0368 C.ar    
  25 C25           -6.7875    -5.1387    -1.1541 C.ar    
  26 C26           -8.0620    -5.6805    -1.0968 C.ar    
  27 C27           -8.6316    -5.9341     0.1383 C.ar    
  28 N28           -7.9753    -5.6660     1.2515 N.ar    
  29 C29           -6.7593    -5.1558     1.2335 C.ar    
  30 Cl30         -10.2275    -6.6119     0.2247 Cl      
  31 H31           -0.9628     1.9161     0.0170 H       
  32 H32            1.2211    -1.7726    -0.0187 H       
  33 H33            3.7663    -1.7225    -0.0421 H       
  34 H34            5.7827    -0.4066    -0.0538 H       
  35 H35            5.9467     3.1419     0.4786 H       
  36 H36            6.8344     1.5992     0.4619 H       
  37 H37            6.6244     1.5051    -2.0071 H       
  38 H38            5.7367     3.0478    -1.9904 H       
  39 H39            8.1318     3.4050    -2.5237 H       
  40 H40            7.7018     4.1676    -0.9740 H       
  41 H41            8.5895     2.6249    -0.9907 H       
  42 H42           -2.5017     1.0067     0.0325 H       
  43 H43           -4.6167    -0.2472     0.0468 H       
  44 H44           -2.4445    -3.9295     0.0061 H       
  45 H45           -0.3242    -2.6845    -0.0146 H       
  46 H46           -4.2162    -4.6078    -0.8708 H       
  47 H47           -4.1986    -4.6173     0.9091 H       
  48 H48           -6.3179    -4.9299    -2.1040 H       
  49 H49           -8.6037    -5.9014    -2.0046 H       
  50 H50           -6.2532    -4.9499     2.1650 H       
@<TRIPOS>BOND
   1    1    2 ar
   2    1    6 ar
   3    1   31 1
   4    2    3 ar
   5    2   16 1
   6    3    4 ar
   7    3   32 1
   8    4    5 ar
   9    4    7 1
  10    5    6 ar
  11    5   10 1
  12    6   15 1
  13    7    8 2
  14    7   33 1
  15    8    9 1
  16    8   34 1
  17    9   10 am
  18    9   11 1
  19   10   14 2
  20   11   12 1
  21   11   35 1
  22   11   36 1
  23   12   13 1
  24   12   37 1
  25   12   38 1
  26   13   39 1
  27   13   40 1
  28   13   41 1
  29   16   17 ar
  30   16   21 ar
  31   17   18 ar
  32   17   42 1
  33   18   19 ar
  34   18   43 1
  35   19   20 ar
  36   19   22 1
  37   20   21 ar
  38   20   44 1
  39   21   45 1
  40   22   23 1
  41   23   24 1
  42   23   46 1
  43   23   47 1
  44   24   25 ar
  45   24   29 ar
  46   25   26 ar
  47   25   48 1
  48   26   27 ar
  49   26   49 1
  50   27   28 ar
  51   27   30 1
  52   28   29 ar
  53   29   50 1

#	End of record

