#	Name: ASD01180298
#	Creating user name:	WinNT
#	Creation time:	15. 06. 2019 19:07

#	Modifying user name:	WinNT
#	Modification time:	15. 06. 2019 19:07

#	Program:	/corina/corina34_cracker 3.40 0067  02.08.2006

@<TRIPOS>MOLECULE
ASD01180298
  65   67    0    0    0
SMALL
NO_CHARGES


@<TRIPOS>ATOM
   1 C1            -0.4255     2.0210    -1.0295 C.2     
   2 C2            -0.3083     0.5221    -0.9264 C.3     
   3 C3            -0.9723    -0.1262    -2.1428 C.3     
   4 O4             0.5678     2.6975    -1.1546 O.2     
   5 O5            -1.6338     2.6042    -0.9880 O.3     
   6 C6            -1.5001    -2.3670    -2.9413 C.2     
   7 C7            -1.4921    -3.8338    -2.7824 C.ar    
   8 C8            -2.0473    -4.6600    -3.7719 C.ar    
   9 C9            -2.0180    -6.0151    -3.5829 C.ar    
  10 C10           -1.4424    -6.5315    -2.4230 C.ar    
  11 N11           -0.9250    -5.7286    -1.5033 N.ar    
  12 C12           -0.9271    -4.4199    -1.6489 C.ar    
  13 O13           -1.9902    -1.8657    -3.9347 O.2     
  14 N14           -0.9643    -1.5827    -1.9851 N.am    
  15 N15           -1.4110    -7.9020    -2.2285 N.pl3   
  16 C16           -2.0822    -8.7924    -3.1787 C.3     
  17 C17           -1.1315    -9.1165    -4.3328 C.3     
  18 C18           -1.8680    -9.9536    -5.3805 C.3     
  19 C19           -2.9769    -9.1133    -6.0171 C.3     
  20 C20           -3.2016   -12.4104    -1.1947 C.ar    
  21 C21           -4.0646   -11.8233    -2.1178 C.ar    
  22 C22           -3.6980   -10.6555    -2.7556 C.ar    
  23 C23           -2.4767   -10.0677    -2.4795 C.ar    
  24 C24           -1.6160   -10.6464    -1.5643 C.ar    
  25 C25           -1.9724   -11.8142    -0.9207 C.ar    
  26 C26           -3.5929   -13.6626    -0.5013 C.ar    
  27 C27           -2.7299   -14.2497     0.4219 C.ar    
  28 C28           -3.0989   -15.4144     1.0639 C.ar    
  29 C29           -4.3226   -15.9992     0.7919 C.ar    
  30 C30           -5.1829   -15.4209    -0.1239 C.ar    
  31 C31           -4.8270   -14.2526    -0.7668 C.ar    
  32 C32           -4.7197   -17.2712     1.4957 C.3     
  33 F33           -5.3954   -16.9575     2.6799 F       
  34 F34           -5.5588   -18.0214     0.6648 F       
  35 F35           -3.5738   -18.0154     1.7957 F       
  36 C36           -0.8819   -10.4002    -6.4618 C.3     
  37 O37            1.0718     0.1540    -0.8845 O.3     
  38 H38           -0.8032     0.1807    -0.0173 H       
  39 H39           -2.0010     0.2247    -2.2253 H       
  40 H40           -0.4226     0.1447    -3.0443 H       
  41 H41           -1.6586     3.5683    -1.0579 H       
  42 H42           -2.4880    -4.2359    -4.6620 H       
  43 H43           -2.4372    -6.6781    -4.3252 H       
  44 H44           -0.4924    -3.7949    -0.8828 H       
  45 H45           -0.5733    -1.9825    -1.1926 H       
  46 H46           -0.9445    -8.2726    -1.4630 H       
  47 H47           -2.9736    -8.3014    -3.5692 H       
  48 H48           -0.7831    -8.1894    -4.7879 H       
  49 H49           -0.2779    -9.6783    -3.9535 H       
  50 H50           -2.3053   -10.8305    -4.9031 H       
  51 H51           -3.5174    -9.7172    -6.7460 H       
  52 H52           -3.6659    -8.7748    -5.2434 H       
  53 H53           -2.5373    -8.2494    -6.5156 H       
  54 H54           -5.0183   -12.2815    -2.3341 H       
  55 H55           -4.3661   -10.1997    -3.4713 H       
  56 H56           -0.6635   -10.1835    -1.3527 H       
  57 H57           -1.2999   -12.2648    -0.2058 H       
  58 H58           -1.7740   -13.7943     0.6344 H       
  59 H59           -2.4309   -15.8703     1.7796 H       
  60 H60           -6.1371   -15.8819    -0.3327 H       
  61 H61           -5.5016   -13.7991    -1.4778 H       
  62 H62           -0.0920   -10.9988    -6.0082 H       
  63 H63           -1.4067   -10.9965    -7.2082 H       
  64 H64           -0.4446    -9.5233    -6.9392 H       
  65 H65            1.5755     0.4267    -1.6636 H       
@<TRIPOS>BOND
   1    1    2 1
   2    1    4 2
   3    1    5 1
   4    2    3 1
   5    2   37 1
   6    2   38 1
   7    3   14 1
   8    3   39 1
   9    3   40 1
  10    5   41 1
  11    6    7 1
  12    6   13 2
  13    6   14 am
  14    7    8 ar
  15    7   12 ar
  16    8    9 ar
  17    8   42 1
  18    9   10 ar
  19    9   43 1
  20   10   11 ar
  21   10   15 1
  22   11   12 ar
  23   12   44 1
  24   14   45 1
  25   15   16 1
  26   15   46 1
  27   16   17 1
  28   16   23 1
  29   16   47 1
  30   17   18 1
  31   17   48 1
  32   17   49 1
  33   18   19 1
  34   18   36 1
  35   18   50 1
  36   19   51 1
  37   19   52 1
  38   19   53 1
  39   20   21 ar
  40   20   25 ar
  41   20   26 1
  42   21   22 ar
  43   21   54 1
  44   22   23 ar
  45   22   55 1
  46   23   24 ar
  47   24   25 ar
  48   24   56 1
  49   25   57 1
  50   26   27 ar
  51   26   31 ar
  52   27   28 ar
  53   27   58 1
  54   28   29 ar
  55   28   59 1
  56   29   30 ar
  57   29   32 1
  58   30   31 ar
  59   30   60 1
  60   31   61 1
  61   32   33 1
  62   32   34 1
  63   32   35 1
  64   36   62 1
  65   36   63 1
  66   36   64 1
  67   37   65 1

#	End of record

