#	Name: ASD00510022
#	Creating user name:	WinNT
#	Creation time:	15. 06. 2019 18:36

#	Modifying user name:	WinNT
#	Modification time:	15. 06. 2019 18:36

#	Program:	/corina/corina34_cracker 3.40 0067  02.08.2006

@<TRIPOS>MOLECULE
ASD00510022
  41   44    0    0    0
SMALL
NO_CHARGES


@<TRIPOS>ATOM
   1 C1            -0.0169     1.3952     0.0097 C.ar    
   2 C2             0.0021    -0.0041     0.0020 C.ar    
   3 C3             1.1963    -0.6617    -0.0129 C.ar    
   4 C4             2.3993     0.0401    -0.0205 C.ar    
   5 C5             2.4169     1.4016    -0.0129 C.ar    
   6 C6             1.2042     2.1121     0.0019 C.ar    
   7 C7             1.1806     3.5173     0.0091 C.ar    
   8 C8            -0.0014     4.1925     0.0239 C.ar    
   9 C9            -1.2221     3.5322     0.0326 C.ar    
  10 C10           -1.2742     2.1424     0.0196 C.ar    
  11 N11           -2.4701     1.4913     0.0222 N.2     
  12 N12           -3.5707     2.1640     0.0310 N.2     
  13 C13           -4.7635     1.5145     0.0336 C.ar    
  14 C14           -7.2427     1.5449     0.0457 C.ar    
  15 C15           -7.2221     0.1383     0.0385 C.ar    
  16 C16           -6.0451    -0.5412     0.0352 C.ar    
  17 C17           -4.8165     0.1178     0.0326 C.ar    
  18 C18           -6.0216     2.2613     0.0435 C.ar    
  19 C19           -6.0399     3.6604     0.0512 C.ar    
  20 C20           -7.2342     4.3190     0.0608 C.ar    
  21 C21           -8.4370     3.6177     0.0630 C.ar    
  22 C22           -8.4546     2.2557     0.0556 C.ar    
  23 O23           -3.6657    -0.6008     0.0286 O.3     
  24 S24            3.9214    -0.8472    -0.0397 S.o2    
  25 O25            4.9026     0.0274     0.5002 O.2     
  26 O26            3.6438    -2.1319     0.5005 O.2     
  27 O27            4.2968    -1.0663    -1.4983 O.3     
  28 H28           -0.9239    -0.5598     0.0082 H       
  29 H29            1.2097    -1.7416    -0.0184 H       
  30 H30            3.3573     1.9326    -0.0183 H       
  31 H31            2.1101     4.0673     0.0031 H       
  32 H32            0.0111     5.2724     0.0295 H       
  33 H33           -2.1393     4.1024     0.0447 H       
  34 H34           -8.1535    -0.4086     0.0407 H       
  35 H35           -6.0619    -1.6210     0.0300 H       
  36 H36           -5.1136     4.2156     0.0500 H       
  37 H37           -7.2470     5.3989     0.0671 H       
  38 H38           -9.3699     4.1617     0.0709 H       
  39 H39           -9.3952     1.7250     0.0571 H       
  40 H40           -3.3345    -0.8081    -0.8559 H       
  41 H41            5.1253    -1.5493    -1.6229 H       
@<TRIPOS>BOND
   1    1    2 ar
   2    1    6 ar
   3    1   10 ar
   4    2    3 ar
   5    2   28 1
   6    3    4 ar
   7    3   29 1
   8    4    5 ar
   9    4   24 1
  10    5    6 ar
  11    5   30 1
  12    6    7 ar
  13    7    8 ar
  14    7   31 1
  15    8    9 ar
  16    8   32 1
  17    9   10 ar
  18    9   33 1
  19   10   11 1
  20   11   12 2
  21   12   13 1
  22   13   18 ar
  23   13   17 ar
  24   14   15 ar
  25   14   18 ar
  26   14   22 ar
  27   15   16 ar
  28   15   34 1
  29   16   17 ar
  30   16   35 1
  31   17   23 1
  32   18   19 ar
  33   19   20 ar
  34   19   36 1
  35   20   21 ar
  36   20   37 1
  37   21   22 ar
  38   21   38 1
  39   22   39 1
  40   23   40 1
  41   24   25 2
  42   24   26 2
  43   24   27 1
  44   27   41 1

#	End of record

