#	Name: ASD07300835
#	Creating user name:	WinNT
#	Creation time:	15. 06. 2019 21:10

#	Modifying user name:	WinNT
#	Modification time:	15. 06. 2019 21:10

#	Program:	/corina/corina34_cracker 3.40 0067  02.08.2006

@<TRIPOS>MOLECULE
ASD07300835
  46   50    0    0    0
SMALL
NO_CHARGES


@<TRIPOS>ATOM
   1 N1            -0.0163     1.3527     0.0095 N.am    
   2 C2             0.0021    -0.0041     0.0020 C.2     
   3 N3             1.1018    -0.6986    -0.0118 N.2     
   4 C4             2.3098    -0.1133    -0.0201 C.2     
   5 C5             2.3914     1.2881    -0.0138 C.2     
   6 C6             1.1433     2.0510     0.0022 C.2     
   7 N7             3.5868    -0.5761    -0.0344 N.pl3   
   8 N8             4.4535     0.5241    -0.0369 N.2     
   9 C9             3.7572     1.6272    -0.0249 C.2     
  10 O10            1.1474     3.2693     0.0079 O.2     
  11 C11            3.9887    -1.9848    -0.0448 C.3     
  12 C12            4.8114    -2.2736    -1.3042 C.3     
  13 C13            5.2930    -3.7264    -1.2676 C.3     
  14 O14            6.0561    -3.9441    -0.0792 O.3     
  15 C15            5.3246    -3.7351     1.1304 C.3     
  16 C16            4.8443    -2.2827     1.1903 C.3     
  17 C17           -1.3127    -0.7405     0.0106 C.3     
  18 C18           -1.6647    -1.3567     1.3748 C.3     
  19 C19           -2.1842    -2.5794     0.6002 C.3     
  20 C20           -1.2168    -2.1785    -0.5260 C.3     
  21 C21           -1.7953    -2.3472    -1.9072 C.ar    
  22 N22           -1.0316    -2.8269    -2.8683 N.ar    
  23 C23           -1.5051    -2.9893    -4.0933 C.ar    
  24 C24           -2.8220    -2.6475    -4.3578 C.ar    
  25 C25           -3.5938    -2.1463    -3.3215 C.ar    
  26 N26           -3.0530    -2.0163    -2.1207 N.ar    
  27 H27           -0.8640     1.8242     0.0160 H       
  28 H28            4.1599     2.6293    -0.0236 H       
  29 H29            3.1010    -2.6173    -0.0362 H       
  30 H30            4.1923    -2.1172    -2.1875 H       
  31 H31            5.6719    -1.6054    -1.3383 H       
  32 H32            4.4321    -4.3950    -1.2744 H       
  33 H33            5.9148    -3.9253    -2.1405 H       
  34 H34            4.4642    -4.4038     1.1551 H       
  35 H35            5.9692    -3.9403     1.9851 H       
  36 H36            5.7055    -1.6147     1.2065 H       
  37 H37            4.2488    -2.1328     2.0908 H       
  38 H38           -2.1248    -0.1619    -0.4298 H       
  39 H39           -0.7942    -1.5704     1.9951 H       
  40 H40           -2.4447    -0.8154     1.9103 H       
  41 H41           -1.9368    -3.5314     1.0700 H       
  42 H42           -3.2350    -2.5048     0.3204 H       
  43 H43           -0.2239    -2.6168    -0.4253 H       
  44 H44           -0.8738    -3.3826    -4.8764 H       
  45 H45           -3.2365    -2.7684    -5.3477 H       
  46 H46           -4.6238    -1.8690    -3.4908 H       
@<TRIPOS>BOND
   1    1    2 1
   2    1    6 am
   3    1   27 1
   4    2    3 2
   5    2   17 1
   6    3    4 1
   7    4    5 2
   8    4    7 1
   9    5    6 1
  10    5    9 1
  11    6   10 2
  12    7    8 1
  13    7   11 1
  14    8    9 2
  15    9   28 1
  16   11   12 1
  17   11   16 1
  18   11   29 1
  19   12   13 1
  20   12   30 1
  21   12   31 1
  22   13   14 1
  23   13   32 1
  24   13   33 1
  25   14   15 1
  26   15   16 1
  27   15   34 1
  28   15   35 1
  29   16   36 1
  30   16   37 1
  31   17   18 1
  32   17   20 1
  33   17   38 1
  34   18   19 1
  35   18   39 1
  36   18   40 1
  37   19   20 1
  38   19   41 1
  39   19   42 1
  40   20   21 1
  41   20   43 1
  42   21   22 ar
  43   21   26 ar
  44   22   23 ar
  45   23   24 ar
  46   23   44 1
  47   24   25 ar
  48   24   45 1
  49   25   26 ar
  50   25   46 1

#	End of record

