#	Name: ASD02560103
#	Creating user name:	WinNT
#	Creation time:	15. 06. 2019 20:24

#	Modifying user name:	WinNT
#	Modification time:	15. 06. 2019 20:24

#	Program:	/corina/corina34_cracker 3.40 0067  02.08.2006

@<TRIPOS>MOLECULE
ASD02560103
  53   56    0    0    0
SMALL
NO_CHARGES


@<TRIPOS>ATOM
   1 N1             0.0387     1.3281     0.4384 N.2     
   2 N2            -0.1998     0.1272     0.2766 N.2     
   3 C3             1.4577     1.6244     0.2027 C.3     
   4 N4             2.1329     0.3028     0.2480 N.3     
   5 C5             1.0140    -0.6097    -0.0984 C.3     
   6 S6             1.1372    -2.1496     0.8525 S.3     
   7 C7             1.0483    -1.5761     2.5712 C.3     
   8 C8             1.1388    -2.7588     3.5007 C.2     
   9 O9             1.2521    -3.8783     3.0483 O.2     
  10 N10            1.0938    -2.5724     4.8348 N.am    
  11 Br11           1.6993     2.4566    -1.5621 Br      
  12 C12            3.1497     0.2288    -0.7016 C.ar    
  13 C13            1.1104    -3.6713     5.6933 C.ar    
  14 C14            0.4496    -3.6065     6.9175 C.ar    
  15 C15            0.4638    -4.6903     7.7672 C.ar    
  16 C16            1.1428    -5.8560     7.3991 C.ar    
  17 C17            1.8047    -5.9167     6.1695 C.ar    
  18 C18            1.7820    -4.8314     5.3225 C.ar    
  19 Cl19          -0.3924    -2.1583     7.3730 Cl      
  20 C20            1.1609    -7.0184     8.3063 C.2     
  21 O21            1.8156    -8.1410     7.9501 O.3     
  22 O22            0.5853    -6.9640     9.3751 O.2     
  23 C23            4.2346     1.1304    -0.6549 C.ar    
  24 C24            3.1082    -0.7294    -1.6921 C.ar    
  25 C25            4.1189    -0.8120    -2.6448 C.ar    
  26 C26            5.1746     0.0479    -2.6263 C.ar    
  27 C27            5.2574     1.0361    -1.6308 C.ar    
  28 C28            6.3353     1.9374    -1.5874 C.ar    
  29 C29            6.3838     2.8827    -0.6095 C.ar    
  30 C30            5.3795     2.9718     0.3524 C.ar    
  31 C31            4.3190     2.1179     0.3389 C.ar    
  32 C32            6.2562    -0.0636    -3.6697 C.3     
  33 C33            7.4066    -0.9114    -3.1232 C.3     
  34 H34            1.8448     2.2755     0.9865 H       
  35 H35            1.0142    -0.8217    -1.1676 H       
  36 H36            1.8748    -0.8938     2.7698 H       
  37 H37            0.1028    -1.0583     2.7330 H       
  38 H38            1.0498    -1.6740     5.1977 H       
  39 H39           -0.0484    -4.6398     8.7167 H       
  40 H40            2.3303    -6.8155     5.8825 H       
  41 H41            2.2934    -4.8782     4.3724 H       
  42 H42            1.7994    -8.8765     8.5776 H       
  43 H43            2.2820    -1.4240    -1.7287 H       
  44 H44            4.0654    -1.5708    -3.4115 H       
  45 H45            7.1210     1.8799    -2.3262 H       
  46 H46            7.2132     3.5738    -0.5782 H       
  47 H47            5.4417     3.7311     1.1179 H       
  48 H48            3.5478     2.1985     1.0907 H       
  49 H49            5.8505    -0.5353    -4.5646 H       
  50 H50            6.6247     0.9315    -3.9188 H       
  51 H51            7.8124    -0.4397    -2.2283 H       
  52 H52            7.0382    -1.9065    -2.8741 H       
  53 H53            8.1890    -0.9920    -3.8779 H       
@<TRIPOS>BOND
   1    1    2 2
   2    1    3 1
   3    2    5 1
   4    3    4 1
   5    3   11 1
   6    3   34 1
   7    4    5 1
   8    4   12 1
   9    5    6 1
  10    5   35 1
  11    6    7 1
  12    7    8 1
  13    7   36 1
  14    7   37 1
  15    8    9 2
  16    8   10 am
  17   10   13 1
  18   10   38 1
  19   12   23 ar
  20   12   24 ar
  21   13   14 ar
  22   13   18 ar
  23   14   15 ar
  24   14   19 1
  25   15   16 ar
  26   15   39 1
  27   16   17 ar
  28   16   20 1
  29   17   18 ar
  30   17   40 1
  31   18   41 1
  32   20   21 1
  33   20   22 2
  34   21   42 1
  35   23   27 ar
  36   23   31 ar
  37   24   25 ar
  38   24   43 1
  39   25   26 ar
  40   25   44 1
  41   26   27 ar
  42   26   32 1
  43   27   28 ar
  44   28   29 ar
  45   28   45 1
  46   29   30 ar
  47   29   46 1
  48   30   31 ar
  49   30   47 1
  50   31   48 1
  51   32   33 1
  52   32   49 1
  53   32   50 1
  54   33   51 1
  55   33   52 1
  56   33   53 1

#	End of record

