#	Name: ASD04910308
#	Creating user name:	WinNT
#	Creation time:	15. 06. 2019 20:55

#	Modifying user name:	WinNT
#	Modification time:	15. 06. 2019 20:55

#	Program:	/corina/corina34_cracker 3.40 0067  02.08.2006

@<TRIPOS>MOLECULE
ASD04910308
  55   57    0    0    0
SMALL
NO_CHARGES


@<TRIPOS>ATOM
   1 C1             0.1210     1.2157    -0.2924 C.ar    
   2 C2             0.3249    -0.1523    -0.3285 C.ar    
   3 C3            -0.7297    -1.0034    -0.5863 C.ar    
   4 C4            -2.0047    -0.4817    -0.8106 C.ar    
   5 C5            -2.2037     0.8993    -0.7723 C.ar    
   6 C6            -1.1415     1.7390    -0.5082 C.ar    
   7 C7             1.2779     2.1394    -0.0105 C.3     
   8 O8             1.1202     3.3437    -0.7635 O.3     
   9 C9             2.2420     3.8784    -1.3145 C.ar    
  10 C10            1.3128     2.4723     1.4824 C.3     
  11 C11            2.5572     3.3077     1.7897 C.3     
  12 C12            2.5921     3.6405     3.2827 C.3     
  13 C13            3.4830     3.3234    -1.0374 C.ar    
  14 C14            2.1450     4.9753    -2.1585 C.ar    
  15 C15            3.2839     5.5182    -2.7191 C.ar    
  16 C16            4.5265     4.9664    -2.4379 C.ar    
  17 C17            4.6226     3.8661    -1.5968 C.ar    
  18 N18            5.6841     5.5174    -3.0076 N.pl3   
  19 N19            5.7336     6.6182    -3.8727 N.2     
  20 C20            6.9850     6.8325    -4.1910 C.2     
  21 C21            7.7723     5.8767    -3.5402 C.2     
  22 C22            6.9499     5.0836    -2.8145 C.2     
  23 C23           -3.1395    -1.3879    -1.0881 C.2     
  24 N24           -4.3695    -0.8810    -1.3042 N.am    
  25 O25           -2.9632    -2.5901    -1.1212 O.2     
  26 C26           -5.4939    -1.7789    -1.5791 C.3     
  27 C27           -6.7662    -0.9546    -1.7857 C.3     
  28 C28           -7.9228    -1.8783    -2.0685 C.2     
  29 O29           -7.7476    -3.0733    -2.1014 O.2     
  30 O30           -9.1478    -1.3734    -2.2838 O.3     
  31 H31            1.3120    -0.5547    -0.1547 H       
  32 H32           -0.5691    -2.0710    -0.6150 H       
  33 H33           -3.1878     1.3093    -0.9450 H       
  34 H34           -1.2941     2.8078    -0.4783 H       
  35 H35            2.2100     1.6519    -0.2960 H       
  36 H36            0.4202     3.0381     1.7495 H       
  37 H37            1.3436     1.5484     2.0600 H       
  38 H38            3.4497     2.7418     1.5227 H       
  39 H39            2.5264     4.2315     1.2121 H       
  40 H40            1.6996     4.2063     3.5497 H       
  41 H41            2.6229     2.7166     3.8603 H       
  42 H42            3.4787     4.2356     3.5016 H       
  43 H43            3.5576     2.4669    -0.3837 H       
  44 H44            1.1783     5.4045    -2.3772 H       
  45 H45            3.2082     6.3716    -3.3766 H       
  46 H46            5.5891     3.4367    -1.3775 H       
  47 H47            7.3473     7.6125    -4.8442 H       
  48 H48            8.8470     5.7898    -3.6021 H       
  49 H49            7.2502     4.2495    -2.1977 H       
  50 H50           -4.5102     0.0784    -1.2778 H       
  51 H51           -5.2854    -2.3571    -2.4793 H       
  52 H52           -5.6325    -2.4561    -0.7363 H       
  53 H53           -6.9746    -0.3764    -0.8855 H       
  54 H54           -6.6275    -0.2774    -2.6285 H       
  55 H55           -9.8581    -2.0052    -2.4611 H       
@<TRIPOS>BOND
   1    1    2 ar
   2    1    7 1
   3    1    6 ar
   4    2    3 ar
   5    2   31 1
   6    3    4 ar
   7    3   32 1
   8    4    5 ar
   9    4   23 1
  10    5    6 ar
  11    5   33 1
  12    6   34 1
  13    7    8 1
  14    7   10 1
  15    7   35 1
  16    8    9 1
  17    9   13 ar
  18    9   14 ar
  19   10   11 1
  20   10   36 1
  21   10   37 1
  22   11   12 1
  23   11   38 1
  24   11   39 1
  25   12   40 1
  26   12   41 1
  27   12   42 1
  28   13   17 ar
  29   13   43 1
  30   14   15 ar
  31   14   44 1
  32   15   16 ar
  33   15   45 1
  34   16   17 ar
  35   16   18 1
  36   17   46 1
  37   18   19 1
  38   18   22 1
  39   19   20 2
  40   20   21 1
  41   20   47 1
  42   21   22 2
  43   21   48 1
  44   22   49 1
  45   23   24 am
  46   23   25 2
  47   24   26 1
  48   24   50 1
  49   26   27 1
  50   26   51 1
  51   26   52 1
  52   27   28 1
  53   27   53 1
  54   27   54 1
  55   28   29 2
  56   28   30 1
  57   30   55 1

#	End of record

