#	Name: ASD01870035
#	Creating user name:	WinNT
#	Creation time:	15. 06. 2019 19:38

#	Modifying user name:	WinNT
#	Modification time:	15. 06. 2019 19:38

#	Program:	/corina/corina34_cracker 3.40 0067  02.08.2006

@<TRIPOS>MOLECULE
ASD01870035
  43   46    0    0    0
SMALL
NO_CHARGES


@<TRIPOS>ATOM
   1 C1            -0.0167     1.3774     0.0096 C.ar    
   2 C2             0.0021    -0.0041     0.0020 C.ar    
   3 N3             1.1354    -0.6695    -0.0119 N.ar    
   4 C4             2.3261    -0.0578    -0.0200 C.ar    
   5 C5             2.3957     1.3311    -0.0137 C.ar    
   6 C6             1.1852     2.0719     0.0019 C.ar    
   7 S7             3.9418    -0.7500    -0.0380 S.3     
   8 C8             4.7122     0.8264    -0.0371 C.2     
   9 C9             3.7719     1.8347    -0.0236 C.2     
  10 C10            6.0887     1.1764    -0.0482 C.2     
  11 N11            6.4263     2.4813    -0.0452 N.am    
  12 C12            5.4567     3.4339    -0.0317 C.2     
  13 N13            4.1958     3.1282    -0.0214 N.2     
  14 N14            1.2027     3.4594     0.0083 N.3     
  15 C15            7.7758     2.8557    -0.0555 C.ar    
  16 O16            6.9494     0.3121    -0.0599 O.2     
  17 C17            0.5119     4.0001    -1.1701 C.3     
  18 C18            0.6194     3.9876     1.2488 C.3     
  19 C19            8.4569     3.0361     1.1409 C.ar    
  20 C20            9.7880     3.4048     1.1274 C.ar    
  21 C21           10.4421     3.5948    -0.0758 C.ar    
  22 C22            9.7663     3.4163    -1.2693 C.ar    
  23 C23            8.4372     3.0417    -1.2625 C.ar    
  24 C24            7.7445     2.8302     2.4529 C.3     
  25 C25           11.8942     3.9976    -0.0869 C.3     
  26 H26           -0.9557     1.9109     0.0170 H       
  27 H27           -0.9315    -0.5470     0.0080 H       
  28 H28            5.7441     4.4749    -0.0290 H       
  29 H29           -0.5249     3.6636    -1.1696 H       
  30 H30            0.5405     5.0893    -1.1400 H       
  31 H31            1.0076     3.6485    -2.0749 H       
  32 H32            1.1933     3.6268     2.1024 H       
  33 H33            0.6457     5.0770     1.2276 H       
  34 H34           -0.4134     3.6507     1.3369 H       
  35 H35           10.3183     3.5453     2.0577 H       
  36 H36           10.2799     3.5658    -2.2075 H       
  37 H37            7.9102     2.9021    -2.1948 H       
  38 H38            7.8467     1.7901     2.7625 H       
  39 H39            8.1832     3.4797     3.2104 H       
  40 H40            6.6882     3.0720     2.3346 H       
  41 H41           12.5189     3.1044    -0.0966 H       
  42 H42           12.0990     4.5939    -0.9760 H       
  43 H43           12.1149     4.5857     0.8039 H       
@<TRIPOS>BOND
   1    1    2 ar
   2    1    6 ar
   3    1   26 1
   4    2    3 ar
   5    2   27 1
   6    3    4 ar
   7    4    5 ar
   8    4    7 1
   9    5    6 ar
  10    5    9 1
  11    6   14 1
  12    7    8 1
  13    8    9 2
  14    8   10 1
  15    9   13 1
  16   10   11 am
  17   10   16 2
  18   11   12 1
  19   11   15 1
  20   12   13 2
  21   12   28 1
  22   14   17 1
  23   14   18 1
  24   15   19 ar
  25   15   23 ar
  26   17   29 1
  27   17   30 1
  28   17   31 1
  29   18   32 1
  30   18   33 1
  31   18   34 1
  32   19   20 ar
  33   19   24 1
  34   20   21 ar
  35   20   35 1
  36   21   22 ar
  37   21   25 1
  38   22   23 ar
  39   22   36 1
  40   23   37 1
  41   24   38 1
  42   24   39 1
  43   24   40 1
  44   25   41 1
  45   25   42 1
  46   25   43 1

#	End of record

