#	Name: ASD02560230
#	Creating user name:	WinNT
#	Creation time:	15. 06. 2019 20:24

#	Modifying user name:	WinNT
#	Modification time:	15. 06. 2019 20:24

#	Program:	/corina/corina34_cracker 3.40 0067  02.08.2006

@<TRIPOS>MOLECULE
ASD02560230
  52   55    0    0    0
SMALL
NO_CHARGES


@<TRIPOS>ATOM
   1 Br1            1.9046     2.4873    -1.7150 Br      
   2 N2             0.0361     1.2991     0.0541 N.2     
   3 N3            -0.0003     0.0661    -0.0056 N.2     
   4 C4             1.4202     1.7901     0.0582 C.3     
   5 N5             2.2433     0.5992     0.3881 N.3     
   6 C6             1.3524    -0.5038    -0.0529 C.3     
   7 S7             1.4839    -1.9137     1.0809 S.3     
   8 C8             0.9678    -1.2085     2.6705 C.3     
   9 C9             1.0239    -2.2741     3.7347 C.2     
  10 O10            1.3773    -3.3987     3.4488 O.2     
  11 N11            0.6815    -1.9776     5.0040 N.am    
  12 C12            3.4338     0.5990    -0.3355 C.ar    
  13 C13            0.6520    -2.9857     5.9747 C.ar    
  14 C14           -0.1690    -2.8561     7.0888 C.ar    
  15 C15           -0.1958    -3.8536     8.0447 C.ar    
  16 C16            0.5931    -4.9795     7.8933 C.ar    
  17 C17            1.4105    -5.1109     6.7861 C.ar    
  18 C18            1.4382    -4.1197     5.8240 C.ar    
  19 Cl19          -1.1588    -1.4427     7.2794 Cl      
  20 S20            0.5566    -6.2491     9.1146 S.o2    
  21 C21            3.4159     0.4246    -1.7360 C.ar    
  22 C22            4.6398     0.7749     0.3092 C.ar    
  23 C23            5.8344     0.7764    -0.4044 C.ar    
  24 C24            5.8466     0.6051    -1.7552 C.ar    
  25 C25            4.6388     0.4279    -2.4511 C.ar    
  26 C26            2.2103     0.2477    -2.4327 C.ar    
  27 C27            4.6214     0.2484    -3.8453 C.ar    
  28 C28            3.4336     0.0790    -4.4877 C.ar    
  29 C29            2.2308     0.0818    -3.7840 C.ar    
  30 O30            1.7896    -6.9468     9.0050 O.2     
  31 O31            0.1150    -5.6357    10.3179 O.2     
  32 N32           -0.6273    -7.3197     8.6736 N.am    
  33 C33            4.6645     0.9683     1.8035 C.3     
  34 H34            1.5471     2.5614     0.8179 H       
  35 H35            1.6005    -0.8087    -1.0695 H       
  36 H36            1.6366    -0.3909     2.9395 H       
  37 H37           -0.0516    -0.8317     2.5871 H       
  38 H38            0.4555    -1.0656     5.2449 H       
  39 H39           -0.8330    -3.7538     8.9110 H       
  40 H40            2.0254    -5.9912     6.6712 H       
  41 H41            2.0771    -4.2234     4.9594 H       
  42 H42            6.7671     0.9159     0.1218 H       
  43 H43            6.7838     0.6096    -2.2920 H       
  44 H44            1.2711     0.2429    -1.8996 H       
  45 H45            5.5458     0.2452    -4.4038 H       
  46 H46            3.4229    -0.0588    -5.5589 H       
  47 H47            1.3018    -0.0552    -4.3175 H       
  48 H48           -1.1420    -7.1678     7.8655 H       
  49 H49           -0.8061    -8.0986     9.2233 H       
  50 H50            4.8375     0.0090     2.2912 H       
  51 H51            5.4649     1.6596     2.0673 H       
  52 H52            3.7088     1.3762     2.1329 H       
@<TRIPOS>BOND
   1    1    4 1
   2    2    3 2
   3    2    4 1
   4    3    6 1
   5    4    5 1
   6    4   34 1
   7    5    6 1
   8    5   12 1
   9    6    7 1
  10    6   35 1
  11    7    8 1
  12    8    9 1
  13    8   36 1
  14    8   37 1
  15    9   10 2
  16    9   11 am
  17   11   13 1
  18   11   38 1
  19   12   21 ar
  20   12   22 ar
  21   13   14 ar
  22   13   18 ar
  23   14   15 ar
  24   14   19 1
  25   15   16 ar
  26   15   39 1
  27   16   17 ar
  28   16   20 1
  29   17   18 ar
  30   17   40 1
  31   18   41 1
  32   20   30 2
  33   20   31 2
  34   20   32 am
  35   21   25 ar
  36   21   26 ar
  37   22   23 ar
  38   22   33 1
  39   23   24 ar
  40   23   42 1
  41   24   25 ar
  42   24   43 1
  43   25   27 ar
  44   26   29 ar
  45   26   44 1
  46   27   28 ar
  47   27   45 1
  48   28   29 ar
  49   28   46 1
  50   29   47 1
  51   32   48 1
  52   32   49 1
  53   33   50 1
  54   33   51 1
  55   33   52 1

#	End of record

