#	Name: ASD00431132
#	Creating user name:	WinNT
#	Creation time:	15. 06. 2019 18:35

#	Modifying user name:	WinNT
#	Modification time:	15. 06. 2019 18:35

#	Program:	/corina/corina34_cracker 3.40 0067  02.08.2006

@<TRIPOS>MOLECULE
ASD00431132
  48   50    0    0    0
SMALL
NO_CHARGES


@<TRIPOS>ATOM
   1 C1            -0.4701     1.7341    -0.7749 C.2     
   2 C2            -0.7153     0.3065    -1.1905 C.3     
   3 C3            -1.2281     0.2757    -2.6317 C.3     
   4 O4             0.6406     2.0852    -0.4374 O.2     
   5 N5            -1.4839     2.6222    -0.7837 N.am    
   6 C6             0.5916    -0.4835    -1.0971 C.3     
   7 C7            -1.2455     4.0100    -0.3798 C.3     
   8 C8            -0.7298     4.8087    -1.5785 C.3     
   9 O9            -3.7541     4.4418    -0.4143 O.3     
  10 N10           -4.6004     5.0556     0.1929 N.2     
  11 C11           -4.0795     5.7214     1.1976 C.2     
  12 C12           -2.6814     5.4459     1.1701 C.2     
  13 C13           -2.5335     4.6182     0.1125 C.2     
  14 S14           -4.0717     7.4657     3.5008 S.3     
  15 C15           -5.6056     8.0790     3.9404 C.2     
  16 N16           -6.5175     7.6326     3.1325 N.2     
  17 C17           -6.1232     6.8297     2.1687 C.2     
  18 C18           -4.7967     6.5815     2.1604 C.2     
  19 O19           -5.8361     8.9113     4.9835 O.3     
  20 C20           -7.1278     9.1923     5.3026 C.ar    
  21 C21           -7.4132    10.1753     6.2409 C.ar    
  22 C22           -8.7260    10.4607     6.5643 C.ar    
  23 C23           -9.7581     9.7651     5.9515 C.ar    
  24 C24           -9.4726     8.7831     5.0148 C.ar    
  25 C25           -8.1603     8.5013     4.6868 C.ar    
  26 O26          -11.0499    10.0459     6.2697 O.3     
  27 C27          -12.0618     9.2910     5.6001 C.3     
  28 Cl28          -6.1213    11.0450     7.0078 Cl      
  29 H29           -1.4585    -0.1414    -0.5308 H       
  30 H30           -0.4849     0.7236    -3.2914 H       
  31 H31           -1.4054    -0.7569    -2.9322 H       
  32 H32           -2.1592     0.8385    -2.6981 H       
  33 H33           -2.3714     2.3423    -1.0575 H       
  34 H34            0.9569    -0.4616    -0.0704 H       
  35 H35            0.4142    -1.5161    -1.3977 H       
  36 H36            1.3348    -0.0357    -1.7568 H       
  37 H37           -0.5040     4.0338     0.4188 H       
  38 H38           -0.5524     5.8413    -1.2780 H       
  39 H39            0.2018     4.3688    -1.9346 H       
  40 H40           -1.4713     4.7850    -2.3771 H       
  41 H41           -1.9175     5.8137     1.8391 H       
  42 H42           -6.8032     6.4048     1.4452 H       
  43 H43           -8.9485    11.2249     7.2943 H       
  44 H44          -10.2763     8.2414     4.5385 H       
  45 H45           -7.9386     7.7398     3.9538 H       
  46 H46          -11.9834     9.4518     4.5249 H       
  47 H47          -11.9297     8.2316     5.8197 H       
  48 H48          -13.0441     9.6139     5.9451 H       
@<TRIPOS>BOND
   1    1    2 1
   2    1    4 2
   3    1    5 am
   4    2    3 1
   5    2    6 1
   6    2   29 1
   7    3   30 1
   8    3   31 1
   9    3   32 1
  10    5    7 1
  11    5   33 1
  12    6   34 1
  13    6   35 1
  14    6   36 1
  15    7    8 1
  16    7   13 1
  17    7   37 1
  18    8   38 1
  19    8   39 1
  20    8   40 1
  21    9   10 1
  22    9   13 1
  23   10   11 2
  24   11   12 1
  25   11   18 1
  26   12   13 2
  27   12   41 1
  28   14   15 1
  29   14   18 1
  30   15   16 2
  31   15   19 1
  32   16   17 1
  33   17   18 2
  34   17   42 1
  35   19   20 1
  36   20   21 ar
  37   20   25 ar
  38   21   22 ar
  39   21   28 1
  40   22   23 ar
  41   22   43 1
  42   23   24 ar
  43   23   26 1
  44   24   25 ar
  45   24   44 1
  46   25   45 1
  47   26   27 1
  48   27   46 1
  49   27   47 1
  50   27   48 1

#	End of record

