#	Name: ASD01150996
#	Creating user name:	WinNT
#	Creation time:	15. 06. 2019 19:05

#	Modifying user name:	WinNT
#	Modification time:	15. 06. 2019 19:05

#	Program:	/corina/corina34_cracker 3.40 0067  02.08.2006

@<TRIPOS>MOLECULE
ASD01150996
  50   52    0    0    0
SMALL
NO_CHARGES


@<TRIPOS>ATOM
   1 C1            -0.0184     1.5028     0.0103 C.3     
   2 C2             0.2330     0.0372    -0.2347 C.2     
   3 N3             0.8862    -0.6978     0.6870 N.am    
   4 O4            -0.1526    -0.4808    -1.2612 O.2     
   5 C5             1.1173    -2.0454     0.4617 C.2     
   6 C6             1.7678    -2.8981     1.3183 C.2     
   7 N7             1.8653    -4.1560     0.8755 N.2     
   8 C8             1.3435    -4.3915    -0.2762 C.2     
   9 S9             0.6322    -2.9196    -0.9256 S.3     
  10 C10            2.3102    -2.4663     2.6084 C.2     
  11 O11            2.1930    -1.3078     2.9604 O.2     
  12 O12            2.9398    -3.3532     3.4063 O.3     
  13 C13            3.4521    -2.8551     4.6703 C.3     
  14 C14            4.1282    -3.9968     5.4320 C.3     
  15 C15            1.3377    -5.7318    -0.9652 C.3     
  16 C16            0.0801    -6.5057    -0.5646 C.3     
  17 C17            1.2980     2.2168     0.1792 C.ar    
  18 C18           -0.7605     2.0882    -1.1634 C.ar    
  19 C19           -0.2650     1.9283    -2.4439 C.ar    
  20 C20           -0.9458     2.4654    -3.5205 C.ar    
  21 C21           -2.1222     3.1620    -3.3166 C.ar    
  22 C22           -2.6182     3.3212    -2.0361 C.ar    
  23 C23           -1.9397     2.7804    -0.9599 C.ar    
  24 C24            1.5032     3.0390     1.2713 C.ar    
  25 C25            2.7106     3.6940     1.4262 C.ar    
  26 C26            3.7129     3.5265     0.4891 C.ar    
  27 C27            3.5081     2.7036    -0.6026 C.ar    
  28 C28            2.3022     2.0452    -0.7552 C.ar    
  29 H29           -0.6154     1.6229     0.9143 H       
  30 H30            1.1946    -0.2834     1.5081 H       
  31 H31            4.1779    -2.0641     4.4817 H       
  32 H32            2.6291    -2.4587     5.2650 H       
  33 H33            4.9512    -4.3931     4.8373 H       
  34 H34            4.5128    -3.6228     6.3809 H       
  35 H35            3.4024    -4.7877     5.6206 H       
  36 H36            1.3455    -5.5851    -2.0452 H       
  37 H37            2.2217    -6.2965    -0.6688 H       
  38 H38            0.0759    -7.4751    -1.0629 H       
  39 H39            0.0724    -6.6524     0.5155 H       
  40 H40           -0.8038    -5.9410    -0.8609 H       
  41 H41            0.6541     1.3840    -2.6032 H       
  42 H42           -0.5583     2.3410    -4.5209 H       
  43 H43           -2.6537     3.5822    -4.1576 H       
  44 H44           -3.5371     3.8657    -1.8767 H       
  45 H45           -2.3272     2.9047     0.0405 H       
  46 H46            0.7200     3.1698     2.0034 H       
  47 H47            2.8707     4.3369     2.2791 H       
  48 H48            4.6560     4.0388     0.6097 H       
  49 H49            4.2911     2.5730    -1.3349 H       
  50 H50            2.1421     1.4023    -1.6081 H       
@<TRIPOS>BOND
   1    1    2 1
   2    1   17 1
   3    1   18 1
   4    1   29 1
   5    2    3 am
   6    2    4 2
   7    3    5 1
   8    3   30 1
   9    5    6 2
  10    5    9 1
  11    6    7 1
  12    6   10 1
  13    7    8 2
  14    8    9 1
  15    8   15 1
  16   10   11 2
  17   10   12 1
  18   12   13 1
  19   13   14 1
  20   13   31 1
  21   13   32 1
  22   14   33 1
  23   14   34 1
  24   14   35 1
  25   15   16 1
  26   15   36 1
  27   15   37 1
  28   16   38 1
  29   16   39 1
  30   16   40 1
  31   17   24 ar
  32   17   28 ar
  33   18   19 ar
  34   18   23 ar
  35   19   20 ar
  36   19   41 1
  37   20   21 ar
  38   20   42 1
  39   21   22 ar
  40   21   43 1
  41   22   23 ar
  42   22   44 1
  43   23   45 1
  44   24   25 ar
  45   24   46 1
  46   25   26 ar
  47   25   47 1
  48   26   27 ar
  49   26   48 1
  50   27   28 ar
  51   27   49 1
  52   28   50 1

#	End of record

