#	Name: ASD08070076
#	Creating user name:	WinNT
#	Creation time:	15. 06. 2019 21:14

#	Modifying user name:	WinNT
#	Modification time:	15. 06. 2019 21:14

#	Program:	/corina/corina34_cracker 3.40 0067  02.08.2006

@<TRIPOS>MOLECULE
ASD08070076
  44   44    0    0    0
SMALL
NO_CHARGES


@<TRIPOS>ATOM
   1 C1            -0.3744     1.4502    -0.3317 C.ar    
   2 C2            -0.2890     0.0758    -0.2400 C.ar    
   3 C3             0.7718     2.2222    -0.2963 C.ar    
   4 C4             2.0166     1.6204    -0.1689 C.ar    
   5 C5             2.1138     0.2423    -0.0762 C.ar    
   6 C6             0.9578    -0.5381    -0.1112 C.ar    
   7 C7             1.0532    -2.0103    -0.0123 C.2     
   8 O8             2.1401    -2.5427     0.0999 O.2     
   9 C9            -1.1948    -4.8565    -0.6098 C.3     
  10 C10            0.0295    -4.2205     0.0516 C.3     
  11 N11           -0.0651    -2.7618    -0.0464 N.am    
  12 C12            0.0829    -4.6240     1.5026 C.2     
  13 O13            0.0459    -3.7798     2.3662 O.2     
  14 C14            0.6700     3.7224    -0.3970 C.3     
  15 O15            3.1402     2.3843    -0.1356 O.3     
  16 C16           -1.1957    -4.5276    -2.1040 C.3     
  17 C17            0.0055    -5.1974    -2.7744 C.3     
  18 C18            4.3870     1.6988    -0.0028 C.3     
  19 O19            0.1717    -5.9213     1.8356 O.3     
  20 C20            0.2189    -6.2365     3.2522 C.3     
  21 C21           -2.4881    -5.0445    -2.7392 C.3     
  22 H22           -1.3394     1.9238    -0.4358 H       
  23 H23           -1.1865    -0.5243    -0.2676 H       
  24 H24            3.0814    -0.2270     0.0226 H       
  25 H25           -1.1596    -5.9377    -0.4758 H       
  26 H26           -2.1015    -4.4628    -0.1506 H       
  27 H27            0.9333    -4.5608    -0.4537 H       
  28 H28           -0.9325    -2.3370    -0.1359 H       
  29 H29            0.5711     4.1477     0.6017 H       
  30 H30            1.5682     4.1165    -0.8724 H       
  31 H31           -0.2030     3.9881    -0.9932 H       
  32 H32           -1.1314    -3.4478    -2.2384 H       
  33 H33           -0.0589    -6.2772    -2.6400 H       
  34 H34            0.0048    -4.9631    -3.8389 H       
  35 H35            0.9262    -4.8292    -2.3219 H       
  36 H36            5.2007     2.4240     0.0105 H       
  37 H37            4.3918     1.1302     0.9271 H       
  38 H38            4.5196     1.0194    -0.8448 H       
  39 H39            0.2900    -7.3164     3.3820 H       
  40 H40            1.0891    -5.7585     3.7020 H       
  41 H41           -0.6870    -5.8713     3.7361 H       
  42 H42           -3.3450    -4.6344    -2.2048 H       
  43 H43           -2.5289    -4.7347    -3.7835 H       
  44 H44           -2.5111    -6.1328    -2.6820 H       
@<TRIPOS>BOND
   1    1    2 ar
   2    1    3 ar
   3    1   22 1
   4    2    6 ar
   5    2   23 1
   6    3    4 ar
   7    3   14 1
   8    4    5 ar
   9    4   15 1
  10    5    6 ar
  11    5   24 1
  12    6    7 1
  13    7    8 2
  14    7   11 am
  15    9   16 1
  16    9   10 1
  17    9   25 1
  18    9   26 1
  19   10   12 1
  20   10   11 1
  21   10   27 1
  22   11   28 1
  23   12   13 2
  24   12   19 1
  25   14   29 1
  26   14   30 1
  27   14   31 1
  28   15   18 1
  29   16   17 1
  30   16   21 1
  31   16   32 1
  32   17   33 1
  33   17   34 1
  34   17   35 1
  35   18   36 1
  36   18   37 1
  37   18   38 1
  38   19   20 1
  39   20   39 1
  40   20   40 1
  41   20   41 1
  42   21   42 1
  43   21   43 1
  44   21   44 1

#	End of record

