#	Name: ASD04270001
#	Creating user name:	WinNT
#	Creation time:	15. 06. 2019 20:48

#	Modifying user name:	WinNT
#	Modification time:	15. 06. 2019 20:48

#	Program:	/corina/corina34_cracker 3.40 0067  02.08.2006

@<TRIPOS>MOLECULE
ASD04270001
  40   42    0    0    0
SMALL
NO_CHARGES


@<TRIPOS>ATOM
   1 C1             0.0350     1.4503    -0.1172 C.2     
   2 C2            -0.0494     0.0798     0.1297 C.2     
   3 N3             1.1636    -0.4090     0.1965 N.2     
   4 N4             2.0756     0.6347    -0.0062 N.pl3   
   5 C5             1.3585     1.7808    -0.1992 C.2     
   6 C6            -1.3242    -0.7070     0.2931 C.3     
   7 C7             1.9117     3.1295    -0.4507 C.ar    
   8 C8             3.1688     3.2726    -1.0389 C.ar    
   9 C9             3.6789     4.5333    -1.2713 C.ar    
  10 C10            2.9467     5.6541    -0.9225 C.ar    
  11 C11            1.6996     5.5190    -0.3390 C.ar    
  12 C12            1.1760     4.2639    -0.1061 C.ar    
  13 C13            3.4720     0.5230    -0.0094 C.ar    
  14 C14            4.2456     1.4490     0.6778 C.ar    
  15 C15            5.6221     1.3359     0.6730 C.ar    
  16 C16            6.2300     0.3021    -0.0155 C.ar    
  17 C17            5.4624    -0.6213    -0.7012 C.ar    
  18 C18            4.0852    -0.5173    -0.6951 C.ar    
  19 S19            7.9864     0.1617    -0.0196 S.o2    
  20 O20            8.3269    -0.5798    -1.1829 O.2     
  21 O21            8.4935     1.4615     0.2497 O.2     
  22 N22            8.4057    -0.7814     1.2754 N.am    
  23 C23            3.5103     7.0281    -1.1788 C.3     
  24 F24           -1.7415    -1.1830    -0.9545 F       
  25 F25           -1.0986    -1.7875     1.1527 F       
  26 F26           -2.3161     0.1189     0.8326 F       
  27 H27           -0.7978     2.1288    -0.2286 H       
  28 H28            3.7415     2.3984    -1.3113 H       
  29 H29            4.6520     4.6454    -1.7262 H       
  30 H30            1.1330     6.3978    -0.0689 H       
  31 H31            0.2005     4.1597     0.3454 H       
  32 H32            3.7715     2.2570     1.2151 H       
  33 H33            6.2244     2.0558     1.2073 H       
  34 H34            5.9401    -1.4272    -1.2385 H       
  35 H35            3.4860    -1.2416    -1.2268 H       
  36 H36            7.7178    -1.1358     1.8603 H       
  37 H37            9.3393    -0.9795     1.4491 H       
  38 H38            3.2105     7.3644    -2.1713 H       
  39 H39            3.1298     7.7224    -0.4296 H       
  40 H40            4.5981     6.9912    -1.1208 H       
@<TRIPOS>BOND
   1    1    2 1
   2    1    5 2
   3    1   27 1
   4    2    3 2
   5    2    6 1
   6    3    4 1
   7    4    5 1
   8    4   13 1
   9    5    7 1
  10    6   24 1
  11    6   25 1
  12    6   26 1
  13    7    8 ar
  14    7   12 ar
  15    8    9 ar
  16    8   28 1
  17    9   10 ar
  18    9   29 1
  19   10   11 ar
  20   10   23 1
  21   11   12 ar
  22   11   30 1
  23   12   31 1
  24   13   14 ar
  25   13   18 ar
  26   14   15 ar
  27   14   32 1
  28   15   16 ar
  29   15   33 1
  30   16   17 ar
  31   16   19 1
  32   17   18 ar
  33   17   34 1
  34   18   35 1
  35   19   20 2
  36   19   21 2
  37   19   22 am
  38   22   36 1
  39   22   37 1
  40   23   38 1
  41   23   39 1
  42   23   40 1

#	End of record

