#	Name: ASD01883814
#	Creating user name:	WinNT
#	Creation time:	15. 06. 2019 19:47

#	Modifying user name:	WinNT
#	Modification time:	15. 06. 2019 19:47

#	Program:	/corina/corina34_cracker 3.40 0067  02.08.2006

@<TRIPOS>MOLECULE
ASD01883814
  57   61    0    0    0
SMALL
NO_CHARGES


@<TRIPOS>ATOM
   1 C1            -0.0168     1.3900     0.0097 C.ar    
   2 C2             0.0021    -0.0041     0.0020 C.ar    
   3 C3             1.2115    -0.6763    -0.0131 C.ar    
   4 C4             2.3974     0.0438    -0.0205 C.ar    
   5 C5             2.3879     1.4508    -0.0129 C.ar    
   6 C6             1.1392     2.1064     0.0025 C.ar    
   7 S7             4.0950    -0.4387    -0.0393 S.3     
   8 N8             4.7403     1.1264    -0.0371 N.am    
   9 C9             3.7355     2.0019    -0.0228 C.2     
  10 O10            3.9349     3.2046    -0.0186 O.2     
  11 O11           -1.1634    -0.7005     0.0098 O.3     
  12 C12           -2.3733     0.0598     0.0259 C.3     
  13 C13           -3.5546    -0.8760     0.0326 C.ar    
  14 C14           -4.0826    -1.3101     1.2314 C.ar    
  15 C15           -5.1751    -2.1750     1.2361 C.ar    
  16 C16           -5.7284    -2.5967     0.0291 C.ar    
  17 C17           -5.1923    -2.1563    -1.1643 C.ar    
  18 C18           -4.1112    -1.2938    -1.1630 C.ar    
  19 C19           -5.7469    -2.6456     2.5222 C.ar    
  20 C20           -6.8372    -3.5086     2.5251 C.ar    
  21 C21           -7.3691    -3.9466     3.7376 C.ar    
  22 C22           -6.8039    -3.5158     4.9399 C.ar    
  23 C23           -5.7219    -2.6586     4.9282 C.ar    
  24 C24           -5.1880    -2.2273     3.7295 C.ar    
  25 C25            6.1661     1.4626    -0.0481 C.3     
  26 C26            6.5020     2.2940    -1.2986 C.3     
  27 C27            7.0394     3.6495    -0.7952 C.3     
  28 C28            7.5601     3.3456     0.6315 C.3     
  29 C29            6.5112     2.3419     1.1715 C.3     
  30 C30           -8.5277    -4.8633     3.7501 C.2     
  31 O31           -9.0401    -5.2851     4.9224 O.3     
  32 O32           -9.0183    -5.2365     2.7035 O.2     
  33 N33           -5.1275    -2.2046     6.2055 N.pl3   
  34 O34           -5.5931    -2.5873     7.2640 O.2     
  35 O35           -4.1728    -1.4482     6.1982 O.2     
  36 H36           -0.9640     1.9089     0.0170 H       
  37 H37            1.2322    -1.7561    -0.0187 H       
  38 H38            1.1007     3.1857     0.0083 H       
  39 H39           -2.3987     0.6834     0.9195 H       
  40 H40           -2.4164     0.6929    -0.8603 H       
  41 H41           -3.6496    -0.9803     2.1642 H       
  42 H42           -6.5750    -3.2673     0.0271 H       
  43 H43           -5.6202    -2.4829    -2.1005 H       
  44 H44           -3.6950    -0.9514    -2.0990 H       
  45 H45           -7.2704    -3.8382     1.5923 H       
  46 H46           -7.2141    -3.8536     5.8802 H       
  47 H47           -4.3415    -1.5567     3.7273 H       
  48 H48            6.7644     0.5515    -0.0337 H       
  49 H49            7.2638     1.7868    -1.8906 H       
  50 H50            5.6041     2.4473    -1.8972 H       
  51 H51            7.8527     3.9977    -1.4320 H       
  52 H52            6.2385     4.3881    -0.7598 H       
  53 H53            8.5485     2.8879     0.5927 H       
  54 H54            7.5761     4.2512     1.2380 H       
  55 H55            5.6250     2.8692     1.5246 H       
  56 H56            6.9390     1.7357     1.9700 H       
  57 H57           -9.7981    -5.8841     4.8800 H       
@<TRIPOS>BOND
   1    1    2 ar
   2    1    6 ar
   3    1   36 1
   4    2    3 ar
   5    2   11 1
   6    3    4 ar
   7    3   37 1
   8    4    5 ar
   9    4    7 1
  10    5    6 ar
  11    5    9 1
  12    6   38 1
  13    7    8 1
  14    8    9 am
  15    8   25 1
  16    9   10 2
  17   11   12 1
  18   12   13 1
  19   12   39 1
  20   12   40 1
  21   13   14 ar
  22   13   18 ar
  23   14   15 ar
  24   14   41 1
  25   15   16 ar
  26   15   19 1
  27   16   17 ar
  28   16   42 1
  29   17   18 ar
  30   17   43 1
  31   18   44 1
  32   19   20 ar
  33   19   24 ar
  34   20   21 ar
  35   20   45 1
  36   21   22 ar
  37   21   30 1
  38   22   23 ar
  39   22   46 1
  40   23   24 ar
  41   23   33 1
  42   24   47 1
  43   25   26 1
  44   25   29 1
  45   25   48 1
  46   26   27 1
  47   26   49 1
  48   26   50 1
  49   27   28 1
  50   27   51 1
  51   27   52 1
  52   28   29 1
  53   28   53 1
  54   28   54 1
  55   29   55 1
  56   29   56 1
  57   30   31 1
  58   30   32 2
  59   31   57 1
  60   33   34 2
  61   33   35 2

#	End of record

