#	Name: ASD01230610
#	Creating user name:	WinNT
#	Creation time:	15. 06. 2019 19:14

#	Modifying user name:	WinNT
#	Modification time:	15. 06. 2019 19:14

#	Program:	/corina/corina34_cracker 3.40 0067  02.08.2006

@<TRIPOS>MOLECULE
ASD01230610
  49   52    0    0    0
SMALL
NO_CHARGES


@<TRIPOS>ATOM
   1 N1            -0.0166     1.3703     0.0096 N.am    
   2 C2             0.0021    -0.0041     0.0020 C.2     
   3 C3             1.2679    -0.4433    -0.0124 C.2     
   4 C4             2.1362     0.7393    -0.0144 C.ar    
   5 C5             3.5179     0.9229    -0.0265 C.ar    
   6 C6             4.0351     2.2133    -0.0245 C.ar    
   7 C7             3.1714     3.3145    -0.0104 C.ar    
   8 C8             1.8175     3.1368     0.0016 C.ar    
   9 C9             1.2794     1.8545    -0.0002 C.ar    
  10 C10           -1.1290     2.1312     0.0192 C.2     
  11 O11           -1.0364     3.3422     0.0249 O.2     
  12 O12           -2.3425     1.5490     0.0225 O.3     
  13 S13            5.9994     4.0834     3.4999 S.o2    
  14 N14            5.4071     3.3698     2.1296 N.am    
  15 C15            6.1767     3.0562     1.1155 C.2     
  16 N16            7.5246     3.2665     1.0479 N.pl3   
  17 C17            8.3007     3.9426     2.0907 C.3     
  18 C18            7.7537     3.5965     3.4787 C.3     
  19 C19            5.5011     2.4230    -0.0369 C.2     
  20 C20            6.2529     2.0308    -1.1228 C.2     
  21 C21            7.6378     2.2465    -1.1039 C.2     
  22 C22            8.2272     2.8383    -0.0508 C.2     
  23 O23            5.8601     5.4780     3.2656 O.2     
  24 O24            5.3105     3.4411     4.5639 O.2     
  25 C25           -3.4964     2.4303     0.0329 C.3     
  26 C26           -3.4704     3.3194    -1.2120 C.3     
  27 C27           -4.7772     1.5934     0.0353 C.3     
  28 C28           -3.4575     3.3067     1.2865 C.3     
  29 H29           -0.8736    -0.6362     0.0070 H       
  30 H30            1.5888    -1.4745    -0.0207 H       
  31 H31            4.1808     0.0703    -0.0371 H       
  32 H32            3.5796     4.3144    -0.0086 H       
  33 H33            1.1623     3.9952     0.0128 H       
  34 H34            9.3419     3.6267     2.0257 H       
  35 H35            8.2427     5.0206     1.9400 H       
  36 H36            8.3017     4.1487     4.2422 H       
  37 H37            7.8440     2.5250     3.6571 H       
  38 H38            5.7825     1.5639    -1.9755 H       
  39 H39            8.2382     1.9339    -1.9454 H       
  40 H40            9.2972     2.9833    -0.0701 H       
  41 H41           -3.4981     2.6950    -2.1050 H       
  42 H42           -4.3366     3.9809    -1.2041 H       
  43 H43           -2.5579     3.9156    -1.2136 H       
  44 H44           -4.7958     0.9600     0.9222 H       
  45 H45           -5.6435     2.2550     0.0431 H       
  46 H46           -4.8050     0.9691    -0.8577 H       
  47 H47           -2.5450     3.9029     1.2848 H       
  48 H48           -4.3237     3.9683     1.2943 H       
  49 H49           -3.4760     2.6733     2.1733 H       
@<TRIPOS>BOND
   1    1    2 1
   2    1    9 1
   3    1   10 am
   4    2    3 2
   5    2   29 1
   6    3    4 1
   7    3   30 1
   8    4    5 ar
   9    4    9 ar
  10    5    6 ar
  11    5   31 1
  12    6    7 ar
  13    6   19 1
  14    7    8 ar
  15    7   32 1
  16    8    9 ar
  17    8   33 1
  18   10   11 2
  19   10   12 1
  20   12   25 1
  21   13   14 am
  22   13   18 1
  23   13   23 2
  24   13   24 2
  25   14   15 2
  26   15   16 1
  27   15   19 1
  28   16   17 1
  29   16   22 1
  30   17   18 1
  31   17   34 1
  32   17   35 1
  33   18   36 1
  34   18   37 1
  35   19   20 2
  36   20   21 1
  37   20   38 1
  38   21   22 2
  39   21   39 1
  40   22   40 1
  41   25   26 1
  42   25   28 1
  43   25   27 1
  44   26   41 1
  45   26   42 1
  46   26   43 1
  47   27   44 1
  48   27   45 1
  49   27   46 1
  50   28   47 1
  51   28   48 1
  52   28   49 1

#	End of record

