#	Name: ASD08151025
#	Creating user name:	WinNT
#	Creation time:	15. 06. 2019 21:17

#	Modifying user name:	WinNT
#	Modification time:	15. 06. 2019 21:17

#	Program:	/corina/corina34_cracker 3.40 0067  02.08.2006

@<TRIPOS>MOLECULE
ASD08151025
  34   36    0    0    0
SMALL
NO_CHARGES


@<TRIPOS>ATOM
   1 N1            -0.0157     1.3074     0.0092 N.ar    
   2 C2             0.0021    -0.0041     0.0020 C.ar    
   3 C3             1.1968    -0.7200    -0.0128 C.ar    
   4 C4             2.3897    -0.0545    -0.0206 C.ar    
   5 C5             2.3652     1.3533    -0.0132 C.ar    
   6 C6             3.5525     2.1031    -0.0200 C.ar    
   7 C7             3.4990     3.4647    -0.0122 C.ar    
   8 C8             2.2806     4.1337     0.0029 C.ar    
   9 C9             1.0881     3.4324     0.0105 C.ar    
  10 C10            1.1145     2.0169     0.0022 C.ar    
  11 C11           -0.5857     4.9515    -1.0528 C.ar    
  12 C12           -0.2047     4.1560     0.0275 C.ar    
  13 C13           -1.0625     4.0519     1.1266 C.ar    
  14 C14           -2.2606     4.7485     1.0929 C.ar    
  15 C15           -2.5654     5.5174    -0.0183 C.ar    
  16 N16           -1.7347     5.5948    -1.0401 N.ar    
  17 F17           -3.1214     4.6778     2.1318 F       
  18 C18            2.2584     5.6405     0.0116 C.3     
  19 C19            2.1385     6.1405     1.4526 C.3     
  20 N20            3.4974     6.1506    -0.5808 N.2     
  21 N21            3.6311     7.2552    -0.7400 N.1     
  22 N22            3.7648     8.3598    -0.8993 N.pl3   
  23 H23           -0.9339    -0.5428     0.0081 H       
  24 H24            1.1800    -1.7998    -0.0177 H       
  25 H25            3.3256    -0.5933    -0.0317 H       
  26 H26            4.5083     1.6004    -0.0309 H       
  27 H27            4.4174     4.0328    -0.0175 H       
  28 H28            0.0696     5.0441    -1.9062 H       
  29 H29           -0.7987     3.4443     1.9796 H       
  30 H30           -3.4978     6.0617    -0.0487 H       
  31 H31            1.4059     5.9947    -0.5680 H       
  32 H32            1.2167     5.7610     1.8934 H       
  33 H33            2.9910     5.7863     2.0322 H       
  34 H34            2.1225     7.2304     1.4589 H       
@<TRIPOS>BOND
   1    1    2 ar
   2    1   10 ar
   3    2    3 ar
   4    2   23 1
   5    3    4 ar
   6    3   24 1
   7    4    5 ar
   8    4   25 1
   9    5    6 ar
  10    5   10 ar
  11    6    7 ar
  12    6   26 1
  13    7    8 ar
  14    7   27 1
  15    8    9 ar
  16    8   18 1
  17    9   10 ar
  18    9   12 1
  19   11   12 ar
  20   11   16 ar
  21   11   28 1
  22   12   13 ar
  23   13   14 ar
  24   13   29 1
  25   14   15 ar
  26   14   17 1
  27   15   16 ar
  28   15   30 1
  29   18   19 1
  30   18   20 1
  31   18   31 1
  32   19   32 1
  33   19   33 1
  34   19   34 1
  35   20   21 2
  36   21   22 2

#	End of record

