#	Name: ASD01880260
#	Creating user name:	WinNT
#	Creation time:	15. 06. 2019 19:40

#	Modifying user name:	WinNT
#	Modification time:	15. 06. 2019 19:40

#	Program:	/corina/corina34_cracker 3.40 0067  02.08.2006

@<TRIPOS>MOLECULE
ASD01880260
  41   44    0    0    0
SMALL
NO_CHARGES


@<TRIPOS>ATOM
   1 C1            -0.0169     1.3984     0.0097 C.2     
   2 C2             0.0021    -0.0041     0.0020 C.2     
   3 C3            -1.2223    -0.7047     0.0099 C.2     
   4 C4            -2.3969    -0.0475     0.0246 C.2     
   5 N5            -2.4615     1.3157     0.0321 N.pl3   
   6 C6            -1.3172     2.0717     0.0319 C.2     
   7 C7            -3.5157     2.1918     0.0459 C.2     
   8 C8            -2.9979     3.4382     0.0471 C.2     
   9 N9            -1.6639     3.3462     0.0396 N.2     
  10 C10           -4.9788     1.8308     0.0568 C.3     
  11 C11            1.2014     2.1509     0.0021 C.1     
  12 N12            2.1678     2.7479    -0.0039 N.1     
  13 C13            1.2855    -0.7368    -0.0146 C.ar    
  14 C14            1.6507    -1.5333     1.0732 C.ar    
  15 C15            2.8481    -2.2156     1.0544 C.ar    
  16 C16            3.6925    -2.1113    -0.0474 C.ar    
  17 C17            3.3310    -1.3183    -1.1316 C.ar    
  18 C18            2.1331    -0.6387    -1.1208 C.ar    
  19 Cl19           3.3037    -3.2055     2.4058 Cl      
  20 N20            4.9031    -2.8025    -0.0641 N.pl3   
  21 C21            5.7929    -2.6937    -1.2228 C.3     
  22 C22            7.2842    -2.9481    -0.9947 C.3     
  23 C23            6.4376    -3.9805    -1.7418 C.3     
  24 C24           -5.5167     1.8383    -1.3755 C.3     
  25 F25           -4.8118     0.9050    -2.1432 F       
  26 F26           -6.8749     1.5032    -1.3654 F       
  27 F27           -5.3551     3.1135    -1.9277 F       
  28 H28           -1.2171    -1.7847     0.0037 H       
  29 H29           -3.3154    -0.6157     0.0303 H       
  30 H30           -3.5662     4.3566     0.0567 H       
  31 H31           -5.1048     0.8373     0.4870 H       
  32 H32           -5.5280     2.5580     0.6549 H       
  33 H33            0.9958    -1.6140     1.9282 H       
  34 H34            3.9884    -1.2390    -1.9848 H       
  35 H35            1.8531    -0.0236    -1.9632 H       
  36 H36            5.1563    -3.3555     0.6916 H       
  37 H37            5.5180    -1.9365    -1.9571 H       
  38 H38            7.9905    -2.3585    -1.5792 H       
  39 H39            7.6034    -3.1964     0.0175 H       
  40 H40            6.1997    -4.9081    -1.2210 H       
  41 H41            6.5869    -4.0702    -2.8178 H       
@<TRIPOS>BOND
   1    1    2 2
   2    1   11 1
   3    1    6 1
   4    2    3 1
   5    2   13 1
   6    3    4 2
   7    3   28 1
   8    4    5 1
   9    4   29 1
  10    5    6 1
  11    5    7 1
  12    6    9 2
  13    7    8 2
  14    7   10 1
  15    8    9 1
  16    8   30 1
  17   10   24 1
  18   10   31 1
  19   10   32 1
  20   11   12 3
  21   13   14 ar
  22   13   18 ar
  23   14   15 ar
  24   14   33 1
  25   15   16 ar
  26   15   19 1
  27   16   17 ar
  28   16   20 1
  29   17   18 ar
  30   17   34 1
  31   18   35 1
  32   20   21 1
  33   20   36 1
  34   21   22 1
  35   21   23 1
  36   21   37 1
  37   22   23 1
  38   22   38 1
  39   22   39 1
  40   23   40 1
  41   23   41 1
  42   24   25 1
  43   24   26 1
  44   24   27 1

#	End of record

