#	Name: ASD02500190
#	Creating user name:	WinNT
#	Creation time:	15. 06. 2019 20:22

#	Modifying user name:	WinNT
#	Modification time:	15. 06. 2019 20:22

#	Program:	/corina/corina34_cracker 3.40 0067  02.08.2006

@<TRIPOS>MOLECULE
ASD02500190
  62   66    0    0    0
SMALL
NO_CHARGES


@<TRIPOS>ATOM
   1 N1            -3.2600     5.6984    -0.3085 N.ar    
   2 C2            -4.3444     6.3741    -0.6012 C.ar    
   3 C3            -5.5155     6.2390     0.1416 C.ar    
   4 C4            -5.5526     5.3840     1.2060 C.ar    
   5 C5            -4.3863     4.6597     1.5172 C.ar    
   6 C6            -4.3486     3.7630     2.5967 C.ar    
   7 C7            -3.2009     3.0813     2.8655 C.ar    
   8 C8            -2.0622     3.2621     2.0834 C.ar    
   9 C9            -2.0635     4.1233     1.0295 C.ar    
  10 C10           -3.2293     4.8453     0.7202 C.ar    
  11 S11           -0.6092     4.3334     0.0571 S.o2    
  12 O12           -0.3810     5.7334    -0.0263 O.2     
  13 O13            0.3507     3.4186     0.5681 O.2     
  14 N14           -0.9682     3.8258    -1.4777 N.am    
  15 C15           -1.2086     2.4790    -1.7262 C.ar    
  16 C16           -0.8496     1.9237    -2.9516 C.ar    
  17 C17           -1.0862     0.5913    -3.2005 C.ar    
  18 C18           -1.6877    -0.2052    -2.2214 C.ar    
  19 C19           -2.0468     0.3552    -0.9923 C.ar    
  20 C20           -1.8024     1.6873    -0.7473 C.ar    
  21 C21           -0.2018     2.7831    -4.0065 C.3     
  22 C22           -1.9431    -1.6339    -2.4852 C.2     
  23 O23           -2.3716    -1.9852    -3.5676 O.2     
  24 N24           -1.7017    -2.5499    -1.5265 N.am    
  25 C25           -1.8642    -3.9839    -1.8041 C.3     
  26 C26           -0.5509    -4.7004    -1.4663 C.3     
  27 N27           -0.1199    -4.2831    -0.1247 N.am    
  28 C28            0.0426    -2.8491     0.1529 C.3     
  29 C29           -1.2653    -2.1329    -0.1865 C.3     
  30 C30            0.1215    -5.1991     0.8340 C.2     
  31 C31            0.6641    -4.7738     2.1445 C.ar    
  32 C32            1.8239    -3.9968     2.2243 C.ar    
  33 C33            2.2952    -3.6223     3.4676 C.ar    
  34 N34            1.6680    -3.9870     4.5681 N.ar    
  35 C35            0.5724    -4.7187     4.5394 C.ar    
  36 C36            0.0271    -5.1334     3.3378 C.ar    
  37 O37           -0.1060    -6.3740     0.6230 O.2     
  38 Cl38          -1.4210    -6.0904     3.3105 Cl      
  39 H39           -4.3298     7.0540    -1.4403 H       
  40 H40           -6.3929     6.8100    -0.1239 H       
  41 H41           -6.4517     5.2672     1.7929 H       
  42 H42           -5.2247     3.6149     3.2106 H       
  43 H43           -3.1728     2.3916     3.6961 H       
  44 H44           -1.1638     2.7102     2.3174 H       
  45 H45           -1.0107     4.4680    -2.2034 H       
  46 H46           -0.8079     0.1613    -4.1513 H       
  47 H47           -2.5116    -0.2575    -0.2340 H       
  48 H48           -2.0753     2.1198     0.2040 H       
  49 H49            0.8808     2.7556    -3.8831 H       
  50 H50           -0.4646     2.4053    -4.9946 H       
  51 H51           -0.5531     3.8099    -3.9048 H       
  52 H52           -2.6692    -4.3866    -1.1894 H       
  53 H53           -2.0988    -4.1280    -2.8588 H       
  54 H54           -0.7083    -5.7789    -1.4811 H       
  55 H55            0.2119    -4.4295    -2.1963 H       
  56 H56            0.2772    -2.7050     1.2076 H       
  57 H57            0.8476    -2.4464    -0.4618 H       
  58 H58           -1.1045    -1.0549    -0.1731 H       
  59 H59           -2.0267    -2.4008     0.5460 H       
  60 H60            2.3436    -3.6943     1.3273 H       
  61 H61            3.1905    -3.0225     3.5389 H       
  62 H62            0.0915    -4.9947     5.4663 H       
@<TRIPOS>BOND
   1    1    2 ar
   2    1   10 ar
   3    2    3 ar
   4    2   39 1
   5    3    4 ar
   6    3   40 1
   7    4    5 ar
   8    4   41 1
   9    5    6 ar
  10    5   10 ar
  11    6    7 ar
  12    6   42 1
  13    7    8 ar
  14    7   43 1
  15    8    9 ar
  16    8   44 1
  17    9   10 ar
  18    9   11 1
  19   11   12 2
  20   11   13 2
  21   11   14 am
  22   14   15 1
  23   14   45 1
  24   15   16 ar
  25   15   20 ar
  26   16   17 ar
  27   16   21 1
  28   17   18 ar
  29   17   46 1
  30   18   19 ar
  31   18   22 1
  32   19   20 ar
  33   19   47 1
  34   20   48 1
  35   21   49 1
  36   21   50 1
  37   21   51 1
  38   22   23 2
  39   22   24 am
  40   24   25 1
  41   24   29 1
  42   25   26 1
  43   25   52 1
  44   25   53 1
  45   26   27 1
  46   26   54 1
  47   26   55 1
  48   27   28 1
  49   27   30 am
  50   28   29 1
  51   28   56 1
  52   28   57 1
  53   29   58 1
  54   29   59 1
  55   30   31 1
  56   30   37 2
  57   31   32 ar
  58   31   36 ar
  59   32   33 ar
  60   32   60 1
  61   33   34 ar
  62   33   61 1
  63   34   35 ar
  64   35   36 ar
  65   35   62 1
  66   36   38 1

#	End of record

