#	Name: ASD02560113
#	Creating user name:	WinNT
#	Creation time:	15. 06. 2019 20:24

#	Modifying user name:	WinNT
#	Modification time:	15. 06. 2019 20:24

#	Program:	/corina/corina34_cracker 3.40 0067  02.08.2006

@<TRIPOS>MOLECULE
ASD02560113
  54   57    0    0    0
SMALL
NO_CHARGES


@<TRIPOS>ATOM
   1 N1             0.0387     1.3214     0.4385 N.2     
   2 N2            -0.1985     0.1202     0.2780 N.2     
   3 C3             1.4575     1.6189     0.2028 C.3     
   4 N4             2.1340     0.2981     0.2497 N.3     
   5 C5             1.0161    -0.6160    -0.0959 C.3     
   6 S6             1.1406    -2.1546     0.8568 S.3     
   7 C7             1.0507    -1.5793     2.5748 C.3     
   8 C8             1.1421    -2.7609     3.5056 C.2     
   9 O9             1.2567    -3.8808     3.0545 O.2     
  10 N10            1.0966    -2.5731     4.8395 N.am    
  11 Br11           1.6986     2.4493    -1.5628 Br      
  12 C12            3.1517     0.2240    -0.7001 C.ar    
  13 C13            1.1130    -3.6710     5.6992 C.ar    
  14 C14            0.4538    -3.6042     6.9242 C.ar    
  15 C15            0.4683    -4.6869     7.7753 C.ar    
  16 C16            1.1459    -5.8535     7.4078 C.ar    
  17 C17            1.8063    -5.9164     6.1775 C.ar    
  18 C18            1.7830    -4.8323     5.3289 C.ar    
  19 Cl19          -0.3865    -2.1547     7.3789 Cl      
  20 C20            1.1642    -7.0148     8.3165 C.2     
  21 O21            0.5900    -6.9585     9.3859 O.2     
  22 O22            1.8177    -8.1383     7.9609 O.3     
  23 C23            4.2358     1.1269    -0.6541 C.ar    
  24 C24            3.1113    -0.7351    -1.6892 C.ar    
  25 C25            4.1226    -0.8178    -2.6419 C.ar    
  26 C26            5.1768     0.0437    -2.6246 C.ar    
  27 C27            5.2587     1.0331    -1.6297 C.ar    
  28 C28            6.3362     1.9356    -1.5890 C.ar    
  29 C29            6.3868     2.8823    -0.6138 C.ar    
  30 C30            5.3808     2.9727     0.3526 C.ar    
  31 C31            4.3176     2.1149     0.3390 C.ar    
  32 C32            6.2587    -0.0679    -3.6677 C.3     
  33 O33            5.4590     3.9290     1.3152 O.3     
  34 C34            6.5917     4.7994     1.2745 C.3     
  35 H35            1.8437     2.2713     0.9860 H       
  36 H36            1.0167    -0.8292    -1.1648 H       
  37 H37            1.8765    -0.8960     2.7728 H       
  38 H38            0.1047    -1.0623     2.7358 H       
  39 H39            1.0524    -1.6743     5.2015 H       
  40 H40           -0.0427    -4.6347     8.7253 H       
  41 H41            2.3308    -6.8159     5.8910 H       
  42 H42            2.2932    -4.8807     4.3782 H       
  43 H43            1.8017    -8.8730     8.5894 H       
  44 H44            2.2858    -1.4306    -1.7252 H       
  45 H45            4.0704    -1.5779    -3.4074 H       
  46 H46            7.1206     1.8771    -2.3291 H       
  47 H47            7.2161     3.5736    -0.5854 H       
  48 H48            3.5463     2.1943     1.0908 H       
  49 H49            6.0009     0.5522    -4.5263 H       
  50 H50            7.2056     0.2701    -3.2466 H       
  51 H51            6.3521    -1.1066    -3.9846 H       
  52 H52            6.5310     5.5133     2.0959 H       
  53 H53            7.5049     4.2120     1.3702 H       
  54 H54            6.6030     5.3367     0.3262 H       
@<TRIPOS>BOND
   1    1    2 2
   2    1    3 1
   3    2    5 1
   4    3    4 1
   5    3   11 1
   6    3   35 1
   7    4    5 1
   8    4   12 1
   9    5    6 1
  10    5   36 1
  11    6    7 1
  12    7    8 1
  13    7   37 1
  14    7   38 1
  15    8    9 2
  16    8   10 am
  17   10   13 1
  18   10   39 1
  19   12   23 ar
  20   12   24 ar
  21   13   14 ar
  22   13   18 ar
  23   14   15 ar
  24   14   19 1
  25   15   16 ar
  26   15   40 1
  27   16   17 ar
  28   16   20 1
  29   17   18 ar
  30   17   41 1
  31   18   42 1
  32   20   21 2
  33   20   22 1
  34   22   43 1
  35   23   27 ar
  36   23   31 ar
  37   24   25 ar
  38   24   44 1
  39   25   26 ar
  40   25   45 1
  41   26   27 ar
  42   26   32 1
  43   27   28 ar
  44   28   29 ar
  45   28   46 1
  46   29   30 ar
  47   29   47 1
  48   30   31 ar
  49   30   33 1
  50   31   48 1
  51   32   49 1
  52   32   50 1
  53   32   51 1
  54   33   34 1
  55   34   52 1
  56   34   53 1
  57   34   54 1

#	End of record

