#	Name: ASD04882486
#	Creating user name:	WinNT
#	Creation time:	15. 06. 2019 20:54

#	Modifying user name:	WinNT
#	Modification time:	15. 06. 2019 20:54

#	Program:	/corina/corina34_cracker 3.40 0067  02.08.2006

@<TRIPOS>MOLECULE
ASD04882486
  81   87    0    0    0
SMALL
NO_CHARGES


@<TRIPOS>ATOM
   1 C1             0.7068     1.2997    -0.0143 C.ar    
   2 C2             0.7928    -0.0949    -0.0458 C.ar    
   3 C3            -0.3640    -0.8635    -0.1073 C.ar    
   4 C4            -1.5986    -0.2540    -0.1375 C.ar    
   5 C5            -1.6918     1.1404    -0.1058 C.ar    
   6 C6            -0.5304     1.9152    -0.0382 C.ar    
   7 N7             2.0391    -0.7155    -0.0159 N.3     
   8 C8             2.1622    -1.5935     1.1561 C.3     
   9 C9             2.2857    -1.4617    -1.2576 C.3     
  10 C10            3.6934    -2.0612    -1.2183 C.3     
  11 N11            3.8165    -2.9392    -0.0463 N.3     
  12 C12            3.5699    -2.1930     1.1954 C.3     
  13 C13           -3.0142     1.7931    -0.1387 C.2     
  14 O14           -3.0943     3.0062    -0.1111 O.2     
  15 N15           -4.1336     1.0449    -0.1993 N.am    
  16 N16            1.8737     2.0730     0.0473 N.am    
  17 C17            5.0666    -3.5617    -0.0164 C.ar    
  18 C18            6.2239    -2.7963     0.0447 C.ar    
  19 C19            7.4585    -3.4151     0.0747 C.ar    
  20 C20            7.5429    -4.7948     0.0435 C.ar    
  21 C21            6.3924    -5.5600    -0.0173 C.ar    
  22 C22            5.1548    -4.9480    -0.0417 C.ar    
  23 C23            1.8329     3.3138     0.5718 C.2     
  24 C24            3.0294     4.1733     0.5251 C.2     
  25 O25            0.8088     3.7242     1.0838 O.2     
  26 N26            4.2368     3.8497    -0.0125 N.2     
  27 C27            5.0382     4.8617     0.1359 C.2     
  28 O28            4.3876     5.8526     0.7618 O.3     
  29 C29            3.1327     5.4423     1.0063 C.2     
  30 C30           -5.3886     1.6567    -0.1195 C.ar    
  31 C31            6.4729     4.9130    -0.3226 C.3     
  32 C32            6.8529     5.9959    -1.3344 C.3     
  33 C33            7.3135     6.1123     0.1200 C.3     
  34 C34           -6.4564     1.1490    -0.8462 C.ar    
  35 C35           -7.6999     1.7585    -0.7639 C.ar    
  36 C36           -7.8727     2.8747     0.0454 C.ar    
  37 C37           -6.8078     3.3779     0.7672 C.ar    
  38 C38           -5.5693     2.7698     0.6919 C.ar    
  39 C39            3.9017    -5.7825    -0.1075 C.3     
  40 N40           -8.7789     1.2500    -1.4954 N.am    
  41 C41          -10.1024     1.8803    -1.5652 C.3     
  42 C42          -11.0540     0.7834    -2.0923 C.3     
  43 C43          -10.0803    -0.1309    -2.8715 C.3     
  44 C44           -8.7347     0.1245    -2.2291 C.2     
  45 O45           -7.7599    -0.5867    -2.3521 O.2     
  46 H46           -0.2943    -1.9410    -0.1319 H       
  47 H47           -2.4954    -0.8538    -0.1860 H       
  48 H48           -0.5993     2.9928    -0.0136 H       
  49 H49            1.9877    -1.0154     2.0635 H       
  50 H50            1.4272    -2.3955     1.0885 H       
  51 H51            1.5521    -2.2623    -1.3526 H       
  52 H52            2.2013    -0.7876    -2.1099 H       
  53 H53            3.8679    -2.6394    -2.1257 H       
  54 H54            4.4285    -1.2592    -1.1507 H       
  55 H55            4.3036    -1.3925     1.2904 H       
  56 H56            3.6544    -2.8672     2.0477 H       
  57 H57           -4.0687     0.0822    -0.2983 H       
  58 H58            2.7108     1.7153    -0.2877 H       
  59 H59            6.1587    -1.7185     0.0683 H       
  60 H60            8.3588    -2.8205     0.1221 H       
  61 H61            8.5095    -5.2761     0.0664 H       
  62 H62            6.4619    -6.6375    -0.0418 H       
  63 H63            2.3554     6.0088     1.4975 H       
  64 H64            6.9749     3.9490    -0.4047 H       
  65 H65            7.6052     5.7445    -2.0819 H       
  66 H66            6.0652     6.6713    -1.6684 H       
  67 H67            6.8288     6.8643     0.7428 H       
  68 H68            8.3688     5.9375     0.3293 H       
  69 H69           -6.3195     0.2815    -1.4748 H       
  70 H70           -8.8405     3.3496     0.1098 H       
  71 H71           -6.9445     4.2460     1.3949 H       
  72 H72           -4.7387     3.1656     1.2574 H       
  73 H73            3.5650    -6.0127     0.9034 H       
  74 H74            3.1234    -5.2287    -0.6324 H       
  75 H75            4.1104    -6.7099    -0.6409 H       
  76 H76          -10.4168     2.2081    -0.5744 H       
  77 H77          -10.0822     2.7248    -2.2540 H       
  78 H78          -11.5212     0.2435    -1.2686 H       
  79 H79          -11.8075     1.2067    -2.7564 H       
  80 H80          -10.3671    -1.1765    -2.7600 H       
  81 H81          -10.0551     0.1485    -3.9248 H       
@<TRIPOS>BOND
   1    1    2 ar
   2    1   16 1
   3    1    6 ar
   4    2    3 ar
   5    2    7 1
   6    3    4 ar
   7    3   46 1
   8    4    5 ar
   9    4   47 1
  10    5    6 ar
  11    5   13 1
  12    6   48 1
  13    7    8 1
  14    7    9 1
  15    8   12 1
  16    8   49 1
  17    8   50 1
  18    9   10 1
  19    9   51 1
  20    9   52 1
  21   10   11 1
  22   10   53 1
  23   10   54 1
  24   11   12 1
  25   11   17 1
  26   12   55 1
  27   12   56 1
  28   13   14 2
  29   13   15 am
  30   15   30 1
  31   15   57 1
  32   16   23 am
  33   16   58 1
  34   17   18 ar
  35   17   22 ar
  36   18   19 ar
  37   18   59 1
  38   19   20 ar
  39   19   60 1
  40   20   21 ar
  41   20   61 1
  42   21   22 ar
  43   21   62 1
  44   22   39 1
  45   23   24 1
  46   23   25 2
  47   24   26 1
  48   24   29 2
  49   26   27 2
  50   27   28 1
  51   27   31 1
  52   28   29 1
  53   29   63 1
  54   30   34 ar
  55   30   38 ar
  56   31   32 1
  57   31   33 1
  58   31   64 1
  59   32   33 1
  60   32   65 1
  61   32   66 1
  62   33   67 1
  63   33   68 1
  64   34   35 ar
  65   34   69 1
  66   35   36 ar
  67   35   40 1
  68   36   37 ar
  69   36   70 1
  70   37   38 ar
  71   37   71 1
  72   38   72 1
  73   39   73 1
  74   39   74 1
  75   39   75 1
  76   40   41 1
  77   40   44 am
  78   41   42 1
  79   41   76 1
  80   41   77 1
  81   42   43 1
  82   42   78 1
  83   42   79 1
  84   43   44 1
  85   43   80 1
  86   43   81 1
  87   44   45 2

#	End of record

