#	Name: ASD03331547
#	Creating user name:	WinNT
#	Creation time:	15. 06. 2019 20:39

#	Modifying user name:	WinNT
#	Modification time:	15. 06. 2019 20:39

#	Program:	/corina/corina34_cracker 3.40 0067  02.08.2006

@<TRIPOS>MOLECULE
ASD03331547
  54   56    0    0    0
SMALL
NO_CHARGES


@<TRIPOS>ATOM
   1 C1             0.4147    -0.1246    -0.8994 C.2     
   2 N2             0.7063    -1.3953    -0.9130 N.2     
   3 C3             1.3842     0.9735    -0.7386 C.2     
   4 N4             1.0838     2.3078    -0.7235 N.pl3   
   5 C5             2.2464     2.9824    -0.5699 C.2     
   6 C6             3.2429     2.0571    -0.4765 C.2     
   7 N7             2.6809     0.8345    -0.5800 N.2     
   8 C8            -0.2515     2.9010    -0.8392 C.3     
   9 C9            -0.1370     4.3007    -1.4471 C.3     
  10 C10            0.0544     5.3337    -0.3375 C.3     
  11 C11            1.3436     5.0576     0.4301 C.3     
  12 C12            2.3930     4.4807    -0.5248 C.3     
  13 C13            4.6771     2.3409    -0.2895 C.2     
  14 O14            5.0633     3.4909    -0.2043 O.2     
  15 N15            5.5605     1.3259    -0.2131 N.am    
  16 C16            6.9860     1.6080    -0.0272 C.3     
  17 C17            7.7998     0.4611    -0.5690 C.2     
  18 C18            6.8102     0.5430     2.2260 C.3     
  19 N19            9.0444     0.6801    -1.0376 N.am    
  20 O20            7.3348    -0.6589    -0.5835 O.2     
  21 C21            7.2811     1.7832     1.4638 C.3     
  22 C22            8.7864     1.9661     1.6677 C.3     
  23 C23            6.5419     3.0156     1.9886 C.3     
  24 C24            9.8764    -0.4485    -1.4620 C.3     
  25 C25           -0.2897    -2.2341    -1.0670 C.2     
  26 C26           -1.5032    -1.6825    -1.1936 C.2     
  27 S27           -1.3235     0.0689    -1.1116 S.3     
  28 H28           -0.8725     2.2758    -1.4808 H       
  29 H29           -0.7051     2.9703     0.1495 H       
  30 H30            0.7171     4.3331    -2.1235 H       
  31 H31           -1.0465     4.5298    -2.0025 H       
  32 H32            0.1028     6.3300    -0.7770 H       
  33 H33           -0.7911     5.2863     0.3489 H       
  34 H34            1.7161     5.9871     0.8607 H       
  35 H35            1.1453     4.3416     1.2276 H       
  36 H36            3.3905     4.7388    -0.1693 H       
  37 H37            2.2428     4.8918    -1.5231 H       
  38 H38            5.2524     0.4086    -0.2810 H       
  39 H39            7.2478     2.5225    -0.5594 H       
  40 H40            7.3369    -0.3351     1.8521 H       
  41 H41            7.0205     0.6678     3.2883 H       
  42 H42            5.7378     0.4126     2.0808 H       
  43 H43            9.3892     1.5850    -1.0937 H       
  44 H44            9.1130     2.8768     1.1656 H       
  45 H45            9.0022     2.0414     2.7334 H       
  46 H46            9.3164     1.1105     1.2492 H       
  47 H47            5.4695     2.8853     1.8433 H       
  48 H48            6.7521     3.1404     3.0508 H       
  49 H49            6.8773     3.8992     1.4456 H       
  50 H50           10.0269    -1.1254    -0.6210 H       
  51 H51            9.3798    -0.9813    -2.2729 H       
  52 H52           10.8416    -0.0785    -1.8079 H       
  53 H53           -0.1405    -3.3035    -1.0906 H       
  54 H54           -2.4314    -2.2182    -1.3276 H       
@<TRIPOS>BOND
   1    1    2 2
   2    1    3 1
   3    1   27 1
   4    2   25 1
   5    3    4 1
   6    3    7 2
   7    4    5 1
   8    4    8 1
   9    5    6 2
  10    5   12 1
  11    6    7 1
  12    6   13 1
  13    8    9 1
  14    8   28 1
  15    8   29 1
  16    9   10 1
  17    9   30 1
  18    9   31 1
  19   10   11 1
  20   10   32 1
  21   10   33 1
  22   11   12 1
  23   11   34 1
  24   11   35 1
  25   12   36 1
  26   12   37 1
  27   13   14 2
  28   13   15 am
  29   15   16 1
  30   15   38 1
  31   16   21 1
  32   16   17 1
  33   16   39 1
  34   17   19 am
  35   17   20 2
  36   18   21 1
  37   18   40 1
  38   18   41 1
  39   18   42 1
  40   19   24 1
  41   19   43 1
  42   21   22 1
  43   21   23 1
  44   22   44 1
  45   22   45 1
  46   22   46 1
  47   23   47 1
  48   23   48 1
  49   23   49 1
  50   24   50 1
  51   24   51 1
  52   24   52 1
  53   25   26 2
  54   25   53 1
  55   26   27 1
  56   26   54 1

#	End of record

