#	Name: ASD03081112
#	Creating user name:	WinNT
#	Creation time:	15. 06. 2019 20:27

#	Modifying user name:	WinNT
#	Modification time:	15. 06. 2019 20:27

#	Program:	/corina/corina34_cracker 3.40 0067  02.08.2006

@<TRIPOS>MOLECULE
ASD03081112
  27   28    0    0    0
SMALL
NO_CHARGES


@<TRIPOS>ATOM
   1 O1            -0.0144     1.2085     0.0087 O.3     
   2 N2             0.0021    -0.0041     0.0020 N.2     
   3 C3             1.2345    -0.4422    -0.0121 C.2     
   4 N4             2.0455     0.6360    -0.0141 N.2     
   5 C5             1.2412     1.6827    -0.0008 C.2     
   6 C6             3.0148    -2.2114    -0.0374 C.ar    
   7 C7             1.6621    -1.8643    -0.0231 C.ar    
   8 C8             0.7234    -2.9020    -0.0189 C.ar    
   9 C9             1.1975    -4.2028    -0.0293 C.ar    
  10 N10            2.4972    -4.4303    -0.0426 N.ar    
  11 N11            3.3623    -3.4830    -0.0465 N.ar    
  12 C12            1.6457     3.1039     0.0026 C.ar    
  13 C13            0.6757     4.1082     0.0173 C.ar    
  14 C14            1.0595     5.4343     0.0203 C.ar    
  15 C15            2.4071     5.7686     0.0083 C.ar    
  16 C16            3.3720     4.7747    -0.0063 C.ar    
  17 C17            2.9987     3.4468    -0.0032 C.ar    
  18 F18            2.7785     7.0676     0.0103 F       
  19 F19            0.1228     6.4078     0.0345 F       
  20 H20            3.7724    -1.4417    -0.0456 H       
  21 H21           -0.3365    -2.6950    -0.0076 H       
  22 H22            0.5040    -5.0307    -0.0262 H       
  23 H23           -0.3725     3.8481     0.0259 H       
  24 H24            4.4188     5.0401    -0.0157 H       
  25 H25            3.7524     2.6734    -0.0097 H       
  26 H26            9.4188    12.0676     5.0345 H       
  27 Cl27           9.4188    13.4376     5.0345 Cl      
@<TRIPOS>BOND
   1    1    2 1
   2    1    5 1
   3    2    3 2
   4    3    4 1
   5    3    7 1
   6    4    5 2
   7    5   12 1
   8    6    7 ar
   9    6   11 ar
  10    6   20 1
  11    7    8 ar
  12    8    9 ar
  13    8   21 1
  14    9   10 ar
  15    9   22 1
  16   10   11 ar
  17   12   13 ar
  18   12   17 ar
  19   13   14 ar
  20   13   23 1
  21   14   15 ar
  22   14   19 1
  23   15   16 ar
  24   15   18 1
  25   16   17 ar
  26   16   24 1
  27   17   25 1
  28   26   27 1

#	End of record

