#	Name: ASD01560043
#	Creating user name:	WinNT
#	Creation time:	15. 06. 2019 19:22

#	Modifying user name:	WinNT
#	Modification time:	15. 06. 2019 19:22

#	Program:	/corina/corina34_cracker 3.40 0067  02.08.2006

@<TRIPOS>MOLECULE
ASD01560043
  38   41    0    0    0
SMALL
NO_CHARGES


@<TRIPOS>ATOM
   1 Cl1            0.0021    -0.0041     0.0020 Cl      
   2 C2            -0.0215     1.7317     0.0116 C.ar    
   3 C3             1.1695     2.4377     0.0040 C.ar    
   4 C4             1.1567     3.8174     0.0115 C.ar    
   5 C5            -0.0590     4.5008     0.0263 C.ar    
   6 C6            -1.2558     3.7845     0.0334 C.ar    
   7 C7            -1.2312     2.4051     0.0210 C.ar    
   8 C8            -0.0791     5.9821     0.0350 C.2     
   9 C9             0.6451     6.8216     0.8999 C.2     
  10 N10            0.3712     8.0652     0.6059 N.2     
  11 N11           -0.5379     8.0979    -0.4568 N.am    
  12 C12           -0.8139     6.8035    -0.8158 C.2     
  13 N13           -1.6687     6.5475    -1.8237 N.2     
  14 C14           -2.2460     7.5366    -2.4722 C.2     
  15 S15           -3.3633     7.1870    -3.7890 S.3     
  16 C16           -3.3093     5.3779    -3.7752 C.3     
  17 C17           -4.2166     4.8400    -4.8515 C.2     
  18 N18           -5.5751     4.8603    -4.6800 N.am    
  19 C19           -6.3935     4.3825    -5.6350 C.2     
  20 O20           -7.5967     4.4099    -5.4618 O.2     
  21 N21           -5.8996     3.8750    -6.7795 N.am    
  22 C22           -4.5679     3.8367    -6.9873 C.2     
  23 O23           -4.1204     3.3773    -8.0226 O.2     
  24 C24           -3.6943     4.3406    -5.9925 C.2     
  25 Cl25          -1.9752     4.3055    -6.2315 Cl      
  26 N26           -1.9826     8.8398    -2.1277 N.am    
  27 C27           -1.1254     9.1123    -1.1226 C.2     
  28 O28           -0.8896    10.2645    -0.8146 O.2     
  29 H29            2.1103     1.9075    -0.0075 H       
  30 H30            2.0863     4.3671     0.0063 H       
  31 H31           -2.1999     4.3087     0.0452 H       
  32 H32           -2.1573     1.8494     0.0264 H       
  33 H33            1.3167     6.4928     1.6792 H       
  34 H34           -2.2884     5.0434    -3.9599 H       
  35 H35           -3.6413     5.0119    -2.8037 H       
  36 H36           -5.9508     5.2223    -3.8622 H       
  37 H37           -6.5041     3.5350    -7.4576 H       
  38 H38           -2.4108     9.5646    -2.6095 H       
@<TRIPOS>BOND
   1    1    2 1
   2    2    3 ar
   3    2    7 ar
   4    3    4 ar
   5    3   29 1
   6    4    5 ar
   7    4   30 1
   8    5    6 ar
   9    5    8 1
  10    6    7 ar
  11    6   31 1
  12    7   32 1
  13    8    9 1
  14    8   12 2
  15    9   10 2
  16    9   33 1
  17   10   11 1
  18   11   12 1
  19   11   27 am
  20   12   13 1
  21   13   14 2
  22   14   15 1
  23   14   26 1
  24   15   16 1
  25   16   17 1
  26   16   34 1
  27   16   35 1
  28   17   18 1
  29   17   24 2
  30   18   19 am
  31   18   36 1
  32   19   20 2
  33   19   21 am
  34   21   22 am
  35   21   37 1
  36   22   23 2
  37   22   24 1
  38   24   25 1
  39   26   27 am
  40   26   38 1
  41   27   28 2

#	End of record

