#	Name: ASD01916343
#	Creating user name:	WinNT
#	Creation time:	15. 06. 2019 20:07

#	Modifying user name:	WinNT
#	Modification time:	15. 06. 2019 20:07

#	Program:	/corina/corina34_cracker 3.40 0067  02.08.2006

@<TRIPOS>MOLECULE
ASD01916343
  43   46    0    0    0
SMALL
NO_CHARGES


@<TRIPOS>ATOM
   1 C1             0.0660     2.1199    -2.0521 C.ar    
   2 C2             0.0190     0.7410    -2.1607 C.ar    
   3 C3             1.1753    -0.0096    -2.0387 C.ar    
   4 C4             2.3842     0.6125    -1.8081 C.ar    
   5 C5             2.4399     2.0050    -1.6976 C.ar    
   6 C6             1.2675     2.7563    -1.8216 C.ar    
   7 C7             3.6914     2.6584    -1.4582 C.1     
   8 C8             4.7174     3.1941    -1.2620 C.1     
   9 C9             5.9690     3.8476    -1.0226 C.2     
  10 S10            6.2007     5.5855    -0.8599 S.3     
  11 C11            7.9236     5.3279    -0.6160 C.2     
  12 C12            8.1838     4.0044    -0.6689 C.2     
  13 N13            7.1179     3.2526    -0.8845 N.2     
  14 C14            8.9587     6.4067    -0.3876 C.3     
  15 N15           10.2105     5.7424     0.0133 N.am    
  16 C16           10.6138     4.5368    -0.7261 C.3     
  17 C17            9.5833     3.4326    -0.4828 C.3     
  18 C18           10.9615     6.2235     1.0237 C.2     
  19 N19           10.6540     7.4087     1.5868 N.am    
  20 O20           11.9164     5.5882     1.4273 O.2     
  21 C21            9.4593     8.2132     1.2920 C.3     
  22 C22            9.5451     9.4927     2.1505 C.3     
  23 C23           11.0618     9.6032     2.4587 C.3     
  24 C24           11.4568     8.1103     2.6050 C.3     
  25 H25           -0.8398     2.6993    -2.1526 H       
  26 H26           -0.9249     0.2482    -2.3413 H       
  27 H27            1.1306    -1.0853    -2.1239 H       
  28 H28            3.2857     0.0254    -1.7127 H       
  29 H29            1.3027     3.8325    -1.7378 H       
  30 H30            9.1165     6.9691    -1.3079 H       
  31 H31            8.6256     7.0774     0.4044 H       
  32 H32           10.6622     4.7618    -1.7915 H       
  33 H33           11.5920     4.2057    -0.3775 H       
  34 H34            9.6894     3.0529     0.5334 H       
  35 H35            9.7431     2.6221    -1.1939 H       
  36 H36            9.4415     8.4768     0.2345 H       
  37 H37            8.5614     7.6523     1.5515 H       
  38 H38            9.2022    10.3597     1.5858 H       
  39 H39            8.9719     9.3790     3.0706 H       
  40 H40           11.5952    10.0728     1.6322 H       
  41 H41           11.2329    10.1439     3.3896 H       
  42 H42           11.2118     7.7491     3.6038 H       
  43 H43           12.5197     7.9775     2.4028 H       
@<TRIPOS>BOND
   1    1    2 ar
   2    1    6 ar
   3    1   25 1
   4    2    3 ar
   5    2   26 1
   6    3    4 ar
   7    3   27 1
   8    4    5 ar
   9    4   28 1
  10    5    6 ar
  11    5    7 1
  12    6   29 1
  13    7    8 3
  14    8    9 1
  15    9   10 1
  16    9   13 2
  17   10   11 1
  18   11   12 2
  19   11   14 1
  20   12   13 1
  21   12   17 1
  22   14   15 1
  23   14   30 1
  24   14   31 1
  25   15   16 1
  26   15   18 am
  27   16   17 1
  28   16   32 1
  29   16   33 1
  30   17   34 1
  31   17   35 1
  32   18   19 am
  33   18   20 2
  34   19   21 1
  35   19   24 1
  36   21   22 1
  37   21   36 1
  38   21   37 1
  39   22   23 1
  40   22   38 1
  41   22   39 1
  42   23   24 1
  43   23   40 1
  44   23   41 1
  45   24   42 1
  46   24   43 1

#	End of record

