#	Name: ASD01883147
#	Creating user name:	WinNT
#	Creation time:	15. 06. 2019 19:45

#	Modifying user name:	WinNT
#	Modification time:	15. 06. 2019 19:45

#	Program:	/corina/corina34_cracker 3.40 0067  02.08.2006

@<TRIPOS>MOLECULE
ASD01883147
  42   43    0    0    0
SMALL
NO_CHARGES


@<TRIPOS>ATOM
   1 N1            -0.0162     1.3417     0.0094 N.am    
   2 C2             0.0021    -0.0041     0.0020 C.2     
   3 C3            -1.2167    -0.7275     0.0102 C.2     
   4 C4            -2.4257    -0.0118     0.0261 C.2     
   5 C5            -2.3786     1.3953     0.0332 C.2     
   6 C6            -1.1848     2.0319     0.0299 C.2     
   7 O7             1.0656    -0.6000    -0.0121 O.2     
   8 C8            -1.2158    -2.1595     0.0021 C.1     
   9 N9            -1.2152    -3.2954    -0.0044 N.1     
  10 C10            1.2511     2.0766     0.0013 C.3     
  11 C11            1.6785     2.3402    -1.4440 C.3     
  12 C12            3.0021     3.1077    -1.4525 C.3     
  13 C13            3.4926     3.2625    -2.8934 C.3     
  14 C14            2.7933     4.4912    -0.8334 C.3     
  15 C15           -3.7229    -0.7230     0.0347 C.ar    
  16 C16           -4.0811    -1.5133     1.1279 C.ar    
  17 C17           -5.2922    -2.1750     1.1329 C.ar    
  18 C18           -6.1531    -2.0578     0.0575 C.ar    
  19 C19           -5.8051    -1.2741    -1.0348 C.ar    
  20 C20           -4.5951    -0.6015    -1.0475 C.ar    
  21 O21           -6.6549    -1.1633    -2.0896 O.3     
  22 C22           -7.8884    -1.8800    -2.0069 C.3     
  23 H23           -3.2952     1.9664     0.0450 H       
  24 H24           -1.1613     3.1116     0.0358 H       
  25 H25            1.1239     3.0260     0.5214 H       
  26 H26            2.0167     1.4862     0.5046 H       
  27 H27            1.8057     1.3908    -1.9642 H       
  28 H28            0.9129     2.9306    -1.9474 H       
  29 H29            3.7442     2.5586    -0.8731 H       
  30 H30            2.7504     3.8116    -3.4729 H       
  31 H31            4.4355     3.8093    -2.8995 H       
  32 H32            3.6413     2.2769    -3.3345 H       
  33 H33            2.4439     4.3809     0.1931 H       
  34 H34            3.7362     5.0380    -0.8395 H       
  35 H35            2.0512     5.0403    -1.4129 H       
  36 H36           -3.4107    -1.6073     1.9694 H       
  37 H37           -5.5681    -2.7865     1.9792 H       
  38 H38           -7.0996    -2.5779     0.0669 H       
  39 H39           -4.3233     0.0083    -1.8964 H       
  40 H40           -7.6833    -2.9458    -1.9068 H       
  41 H41           -8.4515    -1.5353    -1.1396 H       
  42 H42           -8.4713    -1.7055    -2.9113 H       
@<TRIPOS>BOND
   1    1    2 am
   2    1   10 1
   3    1    6 1
   4    2    3 1
   5    2    7 2
   6    3    4 2
   7    3    8 1
   8    4    5 1
   9    4   15 1
  10    5    6 2
  11    5   23 1
  12    6   24 1
  13    8    9 3
  14   10   11 1
  15   10   25 1
  16   10   26 1
  17   11   12 1
  18   11   27 1
  19   11   28 1
  20   12   13 1
  21   12   14 1
  22   12   29 1
  23   13   30 1
  24   13   31 1
  25   13   32 1
  26   14   33 1
  27   14   34 1
  28   14   35 1
  29   15   16 ar
  30   15   20 ar
  31   16   17 ar
  32   16   36 1
  33   17   18 ar
  34   17   37 1
  35   18   19 ar
  36   18   38 1
  37   19   20 ar
  38   19   21 1
  39   20   39 1
  40   21   22 1
  41   22   40 1
  42   22   41 1
  43   22   42 1

#	End of record

