#	Name: ASD01884702
#	Creating user name:	WinNT
#	Creation time:	15. 06. 2019 19:48

#	Modifying user name:	WinNT
#	Modification time:	15. 06. 2019 19:48

#	Program:	/corina/corina34_cracker 3.40 0067  02.08.2006

@<TRIPOS>MOLECULE
ASD01884702
  35   36    0    0    0
SMALL
NO_CHARGES


@<TRIPOS>ATOM
   1 C1            -0.0168     1.3865     0.0097 C.2     
   2 C2             0.0021    -0.0041     0.0020 C.2     
   3 C3            -1.2186    -0.6995     0.0099 C.2     
   4 C4            -2.4044     0.0005     0.0249 C.2     
   5 N5            -2.4131     1.3553     0.0318 N.am    
   6 C6            -1.2661     2.0592     0.0311 C.2     
   7 O7            -1.3005     3.2778     0.0385 O.2     
   8 C8            -3.6938     2.0665     0.0469 C.3     
   9 C9             1.2076     2.1292     0.0020 C.1     
  10 N10            2.1788     2.7183    -0.0041 N.1     
  11 C11           -4.1267     2.3069     1.4945 C.3     
  12 C12           -5.4642     3.0496     1.5102 C.3     
  13 C13           -5.9583     3.1801     2.9524 C.3     
  14 C14           -5.2808     4.4432     0.9060 C.3     
  15 C15           -1.2302    -2.1855     0.0015 C.2     
  16 C16           -0.7812    -2.9888    -1.0046 C.2     
  17 N17           -0.9692    -4.2685    -0.6200 N.pl3   
  18 N18           -1.5485    -4.2609     0.6547 N.2     
  19 C19           -1.7011    -3.0193     1.0335 C.2     
  20 H20            0.9394    -0.5404    -0.0101 H       
  21 H21           -3.3405    -0.5380     0.0309 H       
  22 H22           -3.5839     3.0236    -0.4631 H       
  23 H23           -4.4481     1.4675    -0.4633 H       
  24 H24           -4.2366     1.3498     2.0045 H       
  25 H25           -3.3724     2.9059     2.0047 H       
  26 H26           -6.1958     2.4931     0.9245 H       
  27 H27           -5.2267     3.7366     3.5381 H       
  28 H28           -6.9111     3.7092     2.9636 H       
  29 H29           -6.0890     2.1872     3.3829 H       
  30 H30           -4.9288     4.3503    -0.1215 H       
  31 H31           -6.2337     4.9724     0.9171 H       
  32 H32           -4.5492     4.9998     1.4917 H       
  33 H33           -0.3532    -2.6603    -1.9402 H       
  34 H34           -0.7426    -5.0572    -1.1373 H       
  35 H35           -2.1225    -2.6901     1.9719 H       
@<TRIPOS>BOND
   1    1    2 2
   2    1    9 1
   3    1    6 1
   4    2    3 1
   5    2   20 1
   6    3    4 2
   7    3   15 1
   8    4    5 1
   9    4   21 1
  10    5    8 1
  11    5    6 am
  12    6    7 2
  13    8   11 1
  14    8   22 1
  15    8   23 1
  16    9   10 3
  17   11   12 1
  18   11   24 1
  19   11   25 1
  20   12   13 1
  21   12   14 1
  22   12   26 1
  23   13   27 1
  24   13   28 1
  25   13   29 1
  26   14   30 1
  27   14   31 1
  28   14   32 1
  29   15   16 2
  30   15   19 1
  31   16   17 1
  32   16   33 1
  33   17   18 1
  34   17   34 1
  35   18   19 2
  36   19   35 1

#	End of record

