#	Name: ASD00842154
#	Creating user name:	WinNT
#	Creation time:	15. 06. 2019 18:43

#	Modifying user name:	WinNT
#	Modification time:	15. 06. 2019 18:43

#	Program:	/corina/corina34_cracker 3.40 0067  02.08.2006

@<TRIPOS>MOLECULE
ASD00842154
  95  100    0    0    0
SMALL
NO_CHARGES


@<TRIPOS>ATOM
   1 F1             6.0468    -1.6553    -2.0471 F       
   2 C2             0.9566     1.5325    -0.4417 C.ar    
   3 C3             1.2720     0.2005    -0.6659 C.ar    
   4 C4             1.2250    -0.7072     0.3825 C.ar    
   5 C5             0.8644    -0.2825     1.6464 C.ar    
   6 C6             0.5500     1.0459     1.8673 C.ar    
   7 C7             0.5965     1.9523     0.8245 C.ar    
   8 C8             1.5666    -2.1552     0.1423 C.3     
   9 C9             1.3216    -2.9722     1.3928 C.2     
  10 C10            0.7519    -2.7095    -1.0281 C.3     
  11 C11           -0.7161    -2.4921    -0.7659 C.2     
  12 N12           -1.6341    -2.9955    -1.6147 N.am    
  13 O13           -1.0715    -1.8642     0.2089 O.2     
  14 C14           -3.0645    -2.7005    -1.4414 C.3     
  15 C15           -3.6224    -2.1946    -2.7760 C.3     
  16 N16           -3.3123    -3.1667    -3.8327 N.3     
  17 C17           -1.8620    -3.3031    -4.0224 C.3     
  18 C18           -1.2314    -3.8494    -2.7425 C.3     
  19 C19           -3.9762    -2.8049    -5.0922 C.3     
  20 C20           -3.5326    -3.7657    -6.1988 C.3     
  21 C21           -4.2733    -3.4220    -7.4932 C.3     
  22 N22           -5.7211    -3.5337    -7.2746 N.3     
  23 C23           -6.1779    -2.5869    -6.2493 C.3     
  24 C24           -5.4941    -2.9056    -4.9178 C.3     
  25 C25           -6.4592    -3.3460    -8.5307 C.3     
  26 O26            0.2588    -3.1229     1.9575 O.2     
  27 N27            2.5015    -3.4994     1.7597 N.am    
  28 C28            3.0476    -2.3138    -0.1175 C.ar    
  29 C29            3.5360    -3.1332     0.8952 C.ar    
  30 C30            3.8808    -1.8205    -1.0972 C.ar    
  31 C31            5.2280    -2.1373    -1.0867 C.ar    
  32 C32            5.7368    -2.9597    -0.0763 C.ar    
  33 C33            4.8877    -3.4561     0.9124 C.ar    
  34 C34            2.4601    -6.1341     2.5539 C.ar    
  35 C35            3.5320    -6.8786     2.0972 C.ar    
  36 C36            1.1966    -6.6936     2.6005 C.ar    
  37 C37            1.0021    -7.9984     2.1906 C.ar    
  38 C38            2.0759    -8.7475     1.7319 C.ar    
  39 C39            3.3427    -8.1837     1.6857 C.ar    
  40 O40            1.8873   -10.0315     1.3285 O.3     
  41 H41            4.5179    -6.4393     2.0617 H       
  42 C42            3.0381   -10.7426     0.8682 C.3     
  43 C43           -7.9294    -3.7126    -8.3181 C.3     
  44 C44           -8.6981    -3.5171    -9.6264 C.3     
  45 C45            7.1294    -3.2927    -0.0574 C.1     
  46 N46            8.2341    -3.5569    -0.0425 N.1     
  47 O47            1.6260    -0.2149    -1.9105 O.3     
  48 C48            2.0736     0.1315    -4.2600 C.3     
  49 C49            1.5440     0.7476    -2.9635 C.3     
  50 S50            2.7061    -4.4720     3.0843 S.o2    
  51 O51            4.0746    -4.3665     3.4521 O.2     
  52 O52            1.6375    -4.1716     3.9716 O.2     
  53 H53            0.9967     2.2418    -1.2551 H       
  54 H54            0.8277    -0.9886     2.4628 H       
  55 H55            0.2676     1.3758     2.8561 H       
  56 H56            0.3505     2.9892     0.9995 H       
  57 H57            1.0372    -2.1947    -1.9455 H       
  58 H58            0.9479    -3.7765    -1.1342 H       
  59 H59           -3.5919    -3.6069    -1.1441 H       
  60 H60           -3.1902    -1.9331    -0.6776 H       
  61 H61           -4.7030    -2.0757    -2.6968 H       
  62 H62           -3.1674    -1.2346    -3.0199 H       
  63 H63           -1.6659    -3.9881    -4.8472 H       
  64 H64           -1.4315    -2.3277    -4.2490 H       
  65 H65           -0.1456    -3.8443    -2.8382 H       
  66 H66           -1.5815    -4.8666    -2.5671 H       
  67 H67           -3.7070    -1.7848    -5.3659 H       
  68 H68           -2.4587    -3.6676    -6.3571 H       
  69 H69           -3.7660    -4.7896    -5.9069 H       
  70 H70           -4.0287    -2.4027    -7.7919 H       
  71 H71           -3.9704    -4.1134    -8.2795 H       
  72 H72           -5.9244    -1.5715    -6.5539 H       
  73 H73           -7.2583    -2.6717    -6.1321 H       
  74 H74           -5.7583    -3.9160    -4.6057 H       
  75 H75           -5.8215    -2.1930    -4.1608 H       
  76 H76           -6.3860    -2.3043    -8.8430 H       
  77 H77           -6.0328    -3.9874    -9.3020 H       
  78 H78            3.4821    -1.1859    -1.8748 H       
  79 H79            5.2809    -4.0911     1.6924 H       
  80 H80            0.3610    -6.1102     2.9581 H       
  81 H81            0.0150    -8.4351     2.2276 H       
  82 H82            4.1803    -8.7649     1.3293 H       
  83 H83            3.4652   -10.2254     0.0090 H       
  84 H84            3.7781   -10.7923     1.6670 H       
  85 H85            2.7489   -11.7525     0.5774 H       
  86 H86           -8.0026    -4.7543    -8.0058 H       
  87 H87           -8.3558    -3.0712    -7.5468 H       
  88 H88           -8.6249    -2.4753    -9.9387 H       
  89 H89           -8.2717    -4.1584   -10.3977 H       
  90 H90           -9.7455    -3.7782    -9.4749 H       
  91 H91            2.0929     0.8909    -5.0417 H       
  92 H92            3.0825    -0.2474    -4.0966 H       
  93 H93            1.4228    -0.6878    -4.5653 H       
  94 H94            0.5052     1.0475    -3.1016 H       
  95 H95            2.1429     1.6208    -2.7050 H       
@<TRIPOS>BOND
   1    1   31 1
   2    2    3 ar
   3    2    7 ar
   4    2   53 1
   5    3    4 ar
   6    3   47 1
   7    4    5 ar
   8    4    8 1
   9    5    6 ar
  10    5   54 1
  11    6    7 ar
  12    6   55 1
  13    7   56 1
  14    8    9 1
  15    8   10 1
  16    8   28 1
  17    9   26 2
  18    9   27 am
  19   10   11 1
  20   10   57 1
  21   10   58 1
  22   11   12 am
  23   11   13 2
  24   12   14 1
  25   12   18 1
  26   14   15 1
  27   14   59 1
  28   14   60 1
  29   15   16 1
  30   15   61 1
  31   15   62 1
  32   16   17 1
  33   16   19 1
  34   17   18 1
  35   17   63 1
  36   17   64 1
  37   18   65 1
  38   18   66 1
  39   19   20 1
  40   19   24 1
  41   19   67 1
  42   20   21 1
  43   20   68 1
  44   20   69 1
  45   21   22 1
  46   21   70 1
  47   21   71 1
  48   22   23 1
  49   22   25 1
  50   23   24 1
  51   23   72 1
  52   23   73 1
  53   24   74 1
  54   24   75 1
  55   25   43 1
  56   25   76 1
  57   25   77 1
  58   27   50 am
  59   27   29 1
  60   28   29 ar
  61   28   30 ar
  62   29   33 ar
  63   30   31 ar
  64   30   78 1
  65   31   32 ar
  66   32   33 ar
  67   32   45 1
  68   33   79 1
  69   34   35 ar
  70   34   36 ar
  71   34   50 1
  72   35   41 1
  73   35   39 ar
  74   36   37 ar
  75   36   80 1
  76   37   38 ar
  77   37   81 1
  78   38   39 ar
  79   38   40 1
  80   39   82 1
  81   40   42 1
  82   42   83 1
  83   42   84 1
  84   42   85 1
  85   43   44 1
  86   43   86 1
  87   43   87 1
  88   44   88 1
  89   44   89 1
  90   44   90 1
  91   45   46 3
  92   47   49 1
  93   48   49 1
  94   48   91 1
  95   48   92 1
  96   48   93 1
  97   49   94 1
  98   49   95 1
  99   50   51 2
 100   50   52 2

#	End of record

