#	Name: ASD01881580
#	Creating user name:	WinNT
#	Creation time:	15. 06. 2019 19:42

#	Modifying user name:	WinNT
#	Modification time:	15. 06. 2019 19:42

#	Program:	/corina/corina34_cracker 3.40 0067  02.08.2006

@<TRIPOS>MOLECULE
ASD01881580
  39   40    0    0    0
SMALL
NO_CHARGES


@<TRIPOS>ATOM
   1 N1            -0.0154     1.2839     0.0091 N.pl3   
   2 N2             0.0021    -0.0041     0.0020 N.2     
   3 N3             1.2033    -0.4649    -0.0119 N.2     
   4 C4             2.0741     0.5645    -0.0147 C.ar    
   5 C5             1.2843     1.7298    -0.0009 C.ar    
   6 C6             3.4670     0.6759    -0.0271 C.ar    
   7 C7             4.0484     1.9285    -0.0255 C.ar    
   8 C8             3.2560     3.0739    -0.0118 C.ar    
   9 C9             1.8924     2.9784    -0.0004 C.ar    
  10 C10           -1.2133     2.1272     0.0196 C.3     
  11 C11           -1.6228     2.4135     1.4657 C.3     
  12 C12           -0.4829     3.1377     2.1848 C.3     
  13 C13           -2.8739     3.2942     1.4767 C.3     
  14 C14           -1.9212     1.0947     2.1819 C.3     
  15 O15            5.4033     2.0444    -0.0370 O.3     
  16 C16            5.9411     3.3683    -0.0346 C.3     
  17 C17            7.4694     3.2979    -0.0487 C.3     
  18 C18            8.0453     4.7154    -0.0462 C.3     
  19 Br19          10.0092     4.6250    -0.0642 Br      
  20 Br20           4.5472    -0.8761    -0.0451 Br      
  21 H21            3.7236     4.0474    -0.0103 H       
  22 H22            1.2882     3.8735     0.0099 H       
  23 H23           -1.0007     3.0667    -0.4906 H       
  24 H24           -2.0254     1.6113    -0.4926 H       
  25 H25           -0.2704     4.0772     1.6746 H       
  26 H26           -0.7746     3.3417     3.2150 H       
  27 H27            0.4084     2.5103     2.1769 H       
  28 H28           -3.6859     2.7782     0.9645 H       
  29 H29           -3.1656     3.4981     2.5070 H       
  30 H30           -2.6613     4.2337     0.9666 H       
  31 H31           -1.0299     0.4673     2.1740 H       
  32 H32           -2.2129     1.2987     3.2121 H       
  33 H33           -2.7332     0.5788     1.6696 H       
  34 H34            5.5939     3.9031    -0.9187 H       
  35 H35            5.6098     3.8935     0.8612 H       
  36 H36            7.8167     2.7631     0.8353 H       
  37 H37            7.8008     2.7728    -0.9445 H       
  38 H38            7.6981     5.2502    -0.9302 H       
  39 H39            7.7140     5.2406     0.8496 H       
@<TRIPOS>BOND
   1    1    2 1
   2    1    5 1
   3    1   10 1
   4    2    3 2
   5    3    4 1
   6    4    5 ar
   7    4    6 ar
   8    5    9 ar
   9    6    7 ar
  10    6   20 1
  11    7    8 ar
  12    7   15 1
  13    8    9 ar
  14    8   21 1
  15    9   22 1
  16   10   11 1
  17   10   23 1
  18   10   24 1
  19   11   12 1
  20   11   13 1
  21   11   14 1
  22   12   25 1
  23   12   26 1
  24   12   27 1
  25   13   28 1
  26   13   29 1
  27   13   30 1
  28   14   31 1
  29   14   32 1
  30   14   33 1
  31   15   16 1
  32   16   17 1
  33   16   34 1
  34   16   35 1
  35   17   18 1
  36   17   36 1
  37   17   37 1
  38   18   19 1
  39   18   38 1
  40   18   39 1

#	End of record

