#	Name: ASD01884770
#	Creating user name:	WinNT
#	Creation time:	15. 06. 2019 19:48

#	Modifying user name:	WinNT
#	Modification time:	15. 06. 2019 19:48

#	Program:	/corina/corina34_cracker 3.40 0067  02.08.2006

@<TRIPOS>MOLECULE
ASD01884770
  49   50    0    0    0
SMALL
NO_CHARGES


@<TRIPOS>ATOM
   1 C1            -0.0170     1.4020     0.0098 C.2     
   2 C2             0.0021    -0.0041     0.0020 C.2     
   3 C3            -1.2245    -0.6972     0.0100 C.2     
   4 C4            -2.3887    -0.0097     0.0247 C.2     
   5 N5            -2.4081     1.3481     0.0318 N.am    
   6 C6            -1.2689     2.0648     0.0312 C.2     
   7 O7            -1.3144     3.2832     0.0387 O.2     
   8 C8            -3.6955     2.0471     0.0468 C.3     
   9 C9             1.2047     2.1489     0.0021 C.1     
  10 N10            2.1739     2.7415    -0.0040 N.1     
  11 C11           -4.1308     2.2832     1.4944 C.3     
  12 C12           -5.4753     3.0132     1.5101 C.3     
  13 C13           -6.5527     2.1108     0.9055 C.3     
  14 C14           -5.8506     3.3598     2.9523 C.3     
  15 C15           -3.6921    -0.7661     0.0331 C.3     
  16 C16            1.2833    -0.7401    -0.0146 C.ar    
  17 C17            1.6464    -1.5373     1.0729 C.ar    
  18 C18            2.8421    -2.2234     1.0559 C.ar    
  19 C19            3.6874    -2.1236    -0.0400 C.ar    
  20 C20            3.3309    -1.3293    -1.1291 C.ar    
  21 C21            2.1314    -0.6443    -1.1209 C.ar    
  22 O22            4.1616    -1.2332    -2.2015 O.3     
  23 C23            3.7329    -0.4017    -3.2818 C.3     
  24 O24            4.8650    -2.8008    -0.0517 O.3     
  25 C25            5.1678    -3.5954     1.0968 C.3     
  26 H26           -1.2348    -1.7771     0.0039 H       
  27 H27           -3.5947     3.0052    -0.4631 H       
  28 H28           -4.4440     1.4410    -0.4634 H       
  29 H29           -4.2316     1.3251     2.0044 H       
  30 H30           -3.3822     2.8893     2.0047 H       
  31 H31           -5.3981     3.9294     0.9246 H       
  32 H32           -6.6299     1.1946     1.4911 H       
  33 H33           -7.5106     2.6309     0.9167 H       
  34 H34           -6.2853     1.8638    -0.1219 H       
  35 H35           -5.0830     4.0027     3.3830 H       
  36 H36           -6.8084     3.8799     2.9635 H       
  37 H37           -5.9277     2.4437     3.5379 H       
  38 H38           -3.4906    -1.8373     0.0254 H       
  39 H39           -4.2558    -0.5089     0.9298 H       
  40 H40           -4.2727    -0.4993    -0.8500 H       
  41 H41            0.9906    -1.6162     1.9274 H       
  42 H42            3.1217    -2.8397     1.8976 H       
  43 H43            1.8540    -0.0287    -1.9638 H       
  44 H44            2.7881    -0.7763    -3.6758 H       
  45 H45            3.5980     0.6188    -2.9234 H       
  46 H46            4.4855    -0.4135    -4.0701 H       
  47 H47            5.2054    -2.9578     1.9801 H       
  48 H48            4.3955    -4.3532     1.2283 H       
  49 H49            6.1337    -4.0812     0.9581 H       
@<TRIPOS>BOND
   1    1    2 2
   2    1    9 1
   3    1    6 1
   4    2    3 1
   5    2   16 1
   6    3    4 2
   7    3   26 1
   8    4    5 1
   9    4   15 1
  10    5    8 1
  11    5    6 am
  12    6    7 2
  13    8   11 1
  14    8   27 1
  15    8   28 1
  16    9   10 3
  17   11   12 1
  18   11   29 1
  19   11   30 1
  20   12   13 1
  21   12   14 1
  22   12   31 1
  23   13   32 1
  24   13   33 1
  25   13   34 1
  26   14   35 1
  27   14   36 1
  28   14   37 1
  29   15   38 1
  30   15   39 1
  31   15   40 1
  32   16   17 ar
  33   16   21 ar
  34   17   18 ar
  35   17   41 1
  36   18   19 ar
  37   18   42 1
  38   19   20 ar
  39   19   24 1
  40   20   21 ar
  41   20   22 1
  42   21   43 1
  43   22   23 1
  44   23   44 1
  45   23   45 1
  46   23   46 1
  47   24   25 1
  48   25   47 1
  49   25   48 1
  50   25   49 1

#	End of record

