#	Name: ASD03330805
#	Creating user name:	WinNT
#	Creation time:	15. 06. 2019 20:38

#	Modifying user name:	WinNT
#	Modification time:	15. 06. 2019 20:38

#	Program:	/corina/corina34_cracker 3.40 0067  02.08.2006

@<TRIPOS>MOLECULE
ASD03330805
  56   59    0    0    0
SMALL
NO_CHARGES


@<TRIPOS>ATOM
   1 C1            -0.0026     1.3582    -0.1268 C.2     
   2 N2             0.0179     0.0076    -0.2185 N.pl3   
   3 C3             1.2721     1.7629     0.1341 C.2     
   4 N4             2.0523     0.6611     0.1805 N.2     
   5 C5             1.3079    -0.3977    -0.0361 C.2     
   6 C6             1.7872    -1.7968    -0.0758 C.ar    
   7 C7             1.7193     3.1529     0.3297 C.2     
   8 O8             0.9174     4.0648     0.2628 O.2     
   9 C9             3.4403     4.7294     0.7679 C.2     
  10 N10            3.0171     3.4140     0.5828 N.am    
  11 C11            2.6352     5.8987     0.7219 C.2     
  12 C12           -1.1492    -0.8462    -0.4567 C.3     
  13 C13           -1.9663    -0.2690    -1.6167 C.3     
  14 C14           -2.9659     0.7530    -1.0843 C.3     
  15 N15           -2.4179     1.4734     0.0669 N.3     
  16 C16           -1.2155     2.2347    -0.3027 C.3     
  17 C17            3.0790    -2.0824    -0.5187 C.ar    
  18 C18            3.5202    -3.3893    -0.5529 C.ar    
  19 C19           -3.4308     2.3495     0.6705 C.3     
  20 C20            2.6845    -4.4154    -0.1496 C.ar    
  21 C21            0.9513    -2.8356     0.3350 C.ar    
  22 C22            1.4025    -4.1387     0.2907 C.ar    
  23 N23            4.6568     5.1338     1.0242 N.2     
  24 O24            4.7098     6.3369     1.1321 O.3     
  25 C25            3.5070     6.9045     0.9611 C.2     
  26 C26            3.1887     8.3762     1.0237 C.3     
  27 C27            2.1658     8.6300     2.1328 C.3     
  28 C28            4.4675     9.1624     1.3197 C.3     
  29 C29            2.6098     8.8303    -0.3178 C.3     
  30 H30            3.6567     2.6867     0.6361 H       
  31 H31            1.5733     5.9684     0.5381 H       
  32 H32           -0.8181    -1.8533    -0.7101 H       
  33 H33           -1.7654    -0.8796     0.4417 H       
  34 H34           -1.2960     0.2154    -2.3267 H       
  35 H35           -2.5034    -1.0743    -2.1178 H       
  36 H36           -3.2027     1.4667    -1.8734 H       
  37 H37           -3.8781     0.2381    -0.7831 H       
  38 H38           -1.1277     3.1113     0.3390 H       
  39 H39           -1.2894     2.5497    -1.3436 H       
  40 H40            3.7320    -1.2823    -0.8345 H       
  41 H41            4.5200    -3.6117    -0.8956 H       
  42 H42           -4.2776     1.7498     1.0043 H       
  43 H43           -2.9974     2.8724     1.5230 H       
  44 H44           -3.7690     3.0764    -0.0680 H       
  45 H45            3.0343    -5.4368    -0.1789 H       
  46 H46           -0.0481    -2.6204     0.6831 H       
  47 H47            0.7563    -4.9438     0.6081 H       
  48 H48            2.5782     8.3065     3.0885 H       
  49 H49            1.9356     9.6945     2.1781 H       
  50 H50            1.2548     8.0699     1.9219 H       
  51 H51            5.1963     8.9816     0.5295 H       
  52 H52            4.2373    10.2269     1.3649 H       
  53 H53            4.8799     8.8389     2.2753 H       
  54 H54            1.6988     8.2702    -0.5286 H       
  55 H55            2.3796     9.8948    -0.2725 H       
  56 H56            3.3386     8.6495    -1.1079 H       
@<TRIPOS>BOND
   1    1    2 1
   2    1    3 2
   3    1   16 1
   4    2   12 1
   5    2    5 1
   6    3    4 1
   7    3    7 1
   8    4    5 2
   9    5    6 1
  10    6   21 ar
  11    6   17 ar
  12    7    8 2
  13    7   10 am
  14    9   10 1
  15    9   11 1
  16    9   23 2
  17   10   30 1
  18   11   25 2
  19   11   31 1
  20   12   13 1
  21   12   32 1
  22   12   33 1
  23   13   14 1
  24   13   34 1
  25   13   35 1
  26   14   15 1
  27   14   36 1
  28   14   37 1
  29   15   16 1
  30   15   19 1
  31   16   38 1
  32   16   39 1
  33   17   18 ar
  34   17   40 1
  35   18   20 ar
  36   18   41 1
  37   19   42 1
  38   19   43 1
  39   19   44 1
  40   20   22 ar
  41   20   45 1
  42   21   22 ar
  43   21   46 1
  44   22   47 1
  45   23   24 1
  46   24   25 1
  47   25   26 1
  48   26   27 1
  49   26   28 1
  50   26   29 1
  51   27   48 1
  52   27   49 1
  53   27   50 1
  54   28   51 1
  55   28   52 1
  56   28   53 1
  57   29   54 1
  58   29   55 1
  59   29   56 1

#	End of record

