#	Name: ASD00451033
#	Creating user name:	WinNT
#	Creation time:	15. 06. 2019 18:36

#	Modifying user name:	WinNT
#	Modification time:	15. 06. 2019 18:36

#	Program:	/corina/corina34_cracker 3.40 0067  02.08.2006

@<TRIPOS>MOLECULE
ASD00451033
  69   73    0    0    0
SMALL
NO_CHARGES


@<TRIPOS>ATOM
   1 C1             0.0503     1.2775     0.1205 C.ar    
   2 C2            -0.0090    -0.0976     0.0750 C.ar    
   3 C3             1.3019     1.9251     0.0533 C.ar    
   4 N4            -1.1250     2.0287     0.2271 N.am    
   5 C5             1.1513    -0.8584    -0.0363 C.ar    
   6 C6             1.3991     3.3253     0.0974 C.ar    
   7 C7             2.4818     1.1501    -0.0604 C.ar    
   8 C8             2.3865    -0.2559    -0.1035 C.ar    
   9 C9             2.6227     3.9185     0.0307 C.ar    
  10 C10            3.7269     1.7967    -0.1267 C.ar    
  11 O11            3.5099    -1.0129    -0.2110 O.3     
  12 C12            3.7837     3.1560    -0.0811 C.ar    
  13 C13            4.2328    -1.2444     0.9148 C.ar    
  14 C14            5.4521    -1.9149     0.8576 C.ar    
  15 C15            3.7784    -0.8129     2.1591 C.ar    
  16 C16            6.1671    -2.1348     2.0353 C.ar    
  17 N17            6.1977    -2.4690    -0.1809 N.am    
  18 C18            4.5414    -1.0671     3.2810 C.ar    
  19 N19            7.3244    -2.8151     1.6776 N.am    
  20 N20            5.6910    -1.7093     3.1958 N.ar    
  21 C21            7.3173    -3.0022     0.3448 C.2     
  22 C22            8.3766    -3.2548     2.5973 C.3     
  23 O23            8.1893    -3.5670    -0.2887 O.2     
  24 C24           -2.2554     1.5994    -0.3681 C.2     
  25 O25           -2.2306     0.6155    -1.0822 O.2     
  26 N26           -3.4133     2.2606    -0.1719 N.am    
  27 C27           -4.6034     1.7640    -0.7151 C.ar    
  28 C28            5.8279    -2.4716    -1.5984 C.3     
  29 C29           -4.5920     1.1245    -1.9476 C.ar    
  30 C30           -5.7685     0.6354    -2.4811 C.ar    
  31 C31           -6.9567     0.7824    -1.7896 C.ar    
  32 C32           -6.9714     1.4189    -0.5617 C.ar    
  33 C33           -5.7976     1.9046    -0.0201 C.ar    
  34 C34           -8.2687     1.5773     0.1884 C.3     
  35 C35           -9.4060     0.9522    -0.6219 C.3     
  36 C36           -8.1630     0.8759     1.5441 C.3     
  37 C37           -8.5543     3.0648     0.4047 C.3     
  38 C38            8.0596    -4.6653     3.0981 C.3     
  39 H39           -0.9679    -0.5919     0.1266 H       
  40 H40           -1.1264     2.8585     0.7294 H       
  41 H41            1.0812    -1.9356    -0.0699 H       
  42 H42            0.5076     3.9287     0.1836 H       
  43 H43            2.6945     4.9956     0.0646 H       
  44 H44            4.6348     1.2182    -0.2131 H       
  45 H45            4.7424     3.6507    -0.1323 H       
  46 H46            2.8400    -0.2852     2.2450 H       
  47 H47            4.1914    -0.7332     4.2466 H       
  48 H48            9.3345    -3.2606     2.0772 H       
  49 H49            8.4274    -2.5712     3.4448 H       
  50 H50           -3.4217     3.0808     0.3459 H       
  51 H51            6.2228    -1.5763    -2.0786 H       
  52 H52            6.2438    -3.3561    -2.0809 H       
  53 H53            4.7418    -2.4842    -1.6906 H       
  54 H54           -3.6643     1.0100    -2.4886 H       
  55 H55           -5.7603     0.1379    -3.4397 H       
  56 H56           -7.8753     0.3998    -2.2092 H       
  57 H57           -5.8097     2.4015     0.9388 H       
  58 H58           -9.2026    -0.1075    -0.7760 H       
  59 H59          -10.3444     1.0669    -0.0793 H       
  60 H60           -9.4814     1.4519    -1.5877 H       
  61 H61           -7.3527     1.3213     2.1213 H       
  62 H62           -9.1013     0.9906     2.0866 H       
  63 H63           -7.9595    -0.1838     1.3899 H       
  64 H64           -8.6297     3.5645    -0.5610 H       
  65 H65           -9.4927     3.1794     0.9473 H       
  66 H66           -7.7441     3.5102     0.9820 H       
  67 H67            7.1016    -4.6595     3.6181 H       
  68 H68            8.0088    -5.3489     2.2506 H       
  69 H69            8.8425    -4.9924     3.7823 H       
@<TRIPOS>BOND
   1    1    2 ar
   2    1    3 ar
   3    1    4 1
   4    2    5 ar
   5    2   39 1
   6    3    6 ar
   7    3    7 ar
   8    4   24 am
   9    4   40 1
  10    5    8 ar
  11    5   41 1
  12    6    9 ar
  13    6   42 1
  14    7    8 ar
  15    7   10 ar
  16    8   11 1
  17    9   12 ar
  18    9   43 1
  19   10   12 ar
  20   10   44 1
  21   11   13 1
  22   12   45 1
  23   13   15 ar
  24   13   14 ar
  25   14   16 ar
  26   14   17 1
  27   15   18 ar
  28   15   46 1
  29   16   19 1
  30   16   20 ar
  31   17   21 am
  32   17   28 1
  33   18   20 ar
  34   18   47 1
  35   19   22 1
  36   19   21 am
  37   21   23 2
  38   22   38 1
  39   22   48 1
  40   22   49 1
  41   24   25 2
  42   24   26 am
  43   26   27 1
  44   26   50 1
  45   27   29 ar
  46   27   33 ar
  47   28   51 1
  48   28   52 1
  49   28   53 1
  50   29   30 ar
  51   29   54 1
  52   30   31 ar
  53   30   55 1
  54   31   32 ar
  55   31   56 1
  56   32   33 ar
  57   32   34 1
  58   33   57 1
  59   34   35 1
  60   34   36 1
  61   34   37 1
  62   35   58 1
  63   35   59 1
  64   35   60 1
  65   36   61 1
  66   36   62 1
  67   36   63 1
  68   37   64 1
  69   37   65 1
  70   37   66 1
  71   38   67 1
  72   38   68 1
  73   38   69 1

#	End of record

