#	Name: ASD01151003
#	Creating user name:	WinNT
#	Creation time:	15. 06. 2019 19:05

#	Modifying user name:	WinNT
#	Modification time:	15. 06. 2019 19:05

#	Program:	/corina/corina34_cracker 3.40 0067  02.08.2006

@<TRIPOS>MOLECULE
ASD01151003
  39   40    0    0    0
SMALL
NO_CHARGES


@<TRIPOS>ATOM
   1 C1            -0.0020     1.4212     0.1761 C.2     
   2 C2             0.0686     0.0371     0.0876 C.2     
   3 N3            -1.1736    -0.4134    -0.1240 N.2     
   4 C4            -2.0090     0.5911    -0.1732 C.2     
   5 N5            -1.3432     1.7446     0.0114 N.pl3   
   6 C6            -3.4946     0.4734    -0.3971 C.3     
   7 C7            -4.1913     0.1989     0.9371 C.3     
   8 C8            -1.9218     3.0904     0.0262 C.3     
   9 C9            -2.0342     3.6045    -1.3860 C.ar    
  10 C10           -3.2281     3.4846    -2.0722 C.ar    
  11 C11           -3.3311     3.9561    -3.3676 C.ar    
  12 C12           -2.2403     4.5478    -3.9765 C.ar    
  13 C13           -1.0466     4.6685    -3.2900 C.ar    
  14 C14           -0.9449     4.2009    -1.9931 C.ar    
  15 C15            1.0697     2.3167     0.3948 C.2     
  16 O16            2.2020     1.8900     0.5276 O.2     
  17 O17            0.8375     3.6450     0.4564 O.3     
  18 C18            1.9669     4.4914     0.6799 C.3     
  19 C19            1.5106     5.9513     0.7187 C.3     
  20 N20            1.2151    -0.7357     0.1978 N.pl3   
  21 H21           -3.8731     1.4040    -0.8200 H       
  22 H22           -3.6942    -0.3468    -1.0868 H       
  23 H23           -5.2713     0.2008     0.7901 H       
  24 H24           -3.8781    -0.7734     1.3173 H       
  25 H25           -3.9208     0.9738     1.6544 H       
  26 H26           -2.9123     3.0551     0.4799 H       
  27 H27           -1.2806     3.7553     0.6050 H       
  28 H28           -4.0804     3.0223    -1.5964 H       
  29 H29           -4.2638     3.8619    -3.9040 H       
  30 H30           -2.3206     4.9155    -4.9888 H       
  31 H31           -0.1942     5.1304    -3.7659 H       
  32 H32           -0.0122     4.2951    -1.4567 H       
  33 H33            2.4335     4.2313     1.6301 H       
  34 H34            2.6870     4.3571    -0.1272 H       
  35 H35            1.0440     6.2114    -0.2315 H       
  36 H36            0.7905     6.0856     1.5258 H       
  37 H37            2.3721     6.5969     0.8892 H       
  38 H38            2.0734    -0.3109     0.3519 H       
  39 H39            1.1586    -1.7010     0.1209 H       
@<TRIPOS>BOND
   1    1    2 2
   2    1   15 1
   3    1    5 1
   4    2    3 1
   5    2   20 1
   6    3    4 2
   7    4    5 1
   8    4    6 1
   9    5    8 1
  10    6    7 1
  11    6   21 1
  12    6   22 1
  13    7   23 1
  14    7   24 1
  15    7   25 1
  16    8    9 1
  17    8   26 1
  18    8   27 1
  19    9   10 ar
  20    9   14 ar
  21   10   11 ar
  22   10   28 1
  23   11   12 ar
  24   11   29 1
  25   12   13 ar
  26   12   30 1
  27   13   14 ar
  28   13   31 1
  29   14   32 1
  30   15   16 2
  31   15   17 1
  32   17   18 1
  33   18   19 1
  34   18   33 1
  35   18   34 1
  36   19   35 1
  37   19   36 1
  38   19   37 1
  39   20   38 1
  40   20   39 1

#	End of record

