#	Name: ASD02448062
#	Creating user name:	WinNT
#	Creation time:	15. 06. 2019 20:21

#	Modifying user name:	WinNT
#	Modification time:	15. 06. 2019 20:21

#	Program:	/corina/corina34_cracker 3.40 0067  02.08.2006

@<TRIPOS>MOLECULE
ASD02448062
  78   84    0    0    0
SMALL
NO_CHARGES


@<TRIPOS>ATOM
   1 C1            -0.0280    -6.5911     3.1654 C.ar    
   2 C2             0.4442    -5.4585     2.5307 C.ar    
   3 C3             0.3669    -5.3520     1.1479 C.ar    
   4 C4            -0.1850    -6.3839     0.4039 C.ar    
   5 C5            -0.6588    -7.5209     1.0441 C.ar    
   6 C6            -0.5786    -7.6214     2.4275 C.ar    
   7 N7            -1.2158    -8.5624     0.2985 N.am    
   8 C8            -1.3057    -9.9832     0.6595 C.3     
   9 C9            -1.9772   -10.7756    -0.4153 C.2     
  10 N10           -2.3629   -10.0612    -1.4819 N.am    
  11 S11           -1.9379    -8.4762    -1.2030 S.o2    
  12 O12           -2.1585   -11.9717    -0.3292 O.2     
  13 O13           -3.1434    -7.7387    -1.0548 O.2     
  14 O14           -0.9157    -8.1462    -2.1334 O.2     
  15 N15            0.8460    -4.2019     0.5050 N.pl3   
  16 C16            1.7855    -4.1599    -0.4908 C.2     
  17 C17            0.4604    -2.9219     0.7498 C.2     
  18 N18            1.1218    -2.1238    -0.0408 N.2     
  19 C19            1.9479    -2.8518    -0.8193 C.2     
  20 C20            2.8702    -2.3188    -1.8519 C.ar    
  21 C21            2.4103    -1.3983    -2.7930 C.ar    
  22 C22            4.2017    -2.7320    -1.8814 C.ar    
  23 C23            5.0560    -2.2326    -2.8450 C.ar    
  24 C24            4.5926    -1.3234    -3.7803 C.ar    
  25 C25            3.2733    -0.9053    -3.7522 C.ar    
  26 C26           -0.5648    -2.4950     1.7686 C.3     
  27 C27           -1.9080    -2.3524     1.1002 C.ar    
  28 C28           -2.8049    -3.4051     1.1244 C.ar    
  29 C29           -2.2415    -1.1673     0.4697 C.ar    
  30 C30           -3.4704    -1.0310    -0.1436 C.ar    
  31 C31           -4.3757    -2.0900    -0.1268 C.ar    
  32 C32           -4.0366    -3.2798     0.5144 C.ar    
  33 C33           -5.6987    -1.9492    -0.7840 C.ar    
  34 C34           -6.6040    -3.0082    -0.7672 C.ar    
  35 C35           -6.0423    -0.7555    -1.4152 C.ar    
  36 C36           -7.2741    -0.6300    -2.0250 C.ar    
  37 C37           -8.1670    -1.6864    -2.0098 C.ar    
  38 C38           -7.8331    -2.8718    -1.3801 C.ar    
  39 Cl39           0.7559    -0.8733    -2.7595 Cl      
  40 C40           -9.5109    -1.5430    -2.6765 C.3     
  41 C41           -9.6479    -2.5946    -3.7793 C.3     
  42 C42          -11.0123    -2.4491    -4.4561 C.3     
  43 C43          -12.1197    -2.6498    -3.4197 C.3     
  44 C44          -11.9828    -1.5982    -2.3168 C.3     
  45 C45          -10.6183    -1.7437    -1.6400 C.3     
  46 Cl46           4.7847    -3.8718    -0.7088 Cl      
  47 Cl47           5.6718    -0.6997    -4.9886 Cl      
  48 H48            0.0373    -6.6732     4.2403 H       
  49 H49            0.8736    -4.6548     3.1104 H       
  50 H50           -0.2464    -6.3031    -0.6713 H       
  51 H51           -0.9466    -8.5057     2.9265 H       
  52 H52           -0.3011   -10.3756     0.8177 H       
  53 H53           -1.8748   -10.0813     1.5839 H       
  54 H54           -2.8107   -10.4047    -2.2709 H       
  55 H55            2.2982    -5.0032    -0.9293 H       
  56 H56            6.0875    -2.5517    -2.8685 H       
  57 H57            2.9170    -0.1958    -4.4843 H       
  58 H58           -0.6288    -3.2458     2.5562 H       
  59 H59           -0.2708    -1.5387     2.2011 H       
  60 H60           -2.5409    -4.3269     1.6214 H       
  61 H61           -1.5391    -0.3469     0.4576 H       
  62 H62           -3.7299    -0.1051    -0.6353 H       
  63 H63           -4.7344    -4.1039     0.5300 H       
  64 H64           -6.3444    -3.9343    -0.2758 H       
  65 H65           -5.3462     0.0701    -1.4270 H       
  66 H66           -7.5415     0.2948    -2.5145 H       
  67 H67           -8.5339    -3.6936    -1.3716 H       
  68 H68           -9.5964    -0.5472    -3.1114 H       
  69 H69           -8.8590    -2.4516    -4.5177 H       
  70 H70           -9.5624    -3.5904    -3.3445 H       
  71 H71          -11.0978    -1.4533    -4.8910 H       
  72 H72          -11.1099    -3.1983    -5.2418 H       
  73 H73          -13.0918    -2.5461    -3.9019 H       
  74 H74          -12.0343    -3.6456    -2.9848 H       
  75 H75          -12.0682    -0.6024    -2.7517 H       
  76 H76          -12.7717    -1.7412    -1.5784 H       
  77 H77          -10.5328    -2.7395    -1.2052 H       
  78 H78          -10.5207    -0.9945    -0.8543 H       
@<TRIPOS>BOND
   1    1    2 ar
   2    1    6 ar
   3    1   48 1
   4    2    3 ar
   5    2   49 1
   6    3    4 ar
   7    3   15 1
   8    4    5 ar
   9    4   50 1
  10    5    6 ar
  11    5    7 1
  12    6   51 1
  13    7    8 1
  14    7   11 am
  15    8    9 1
  16    8   52 1
  17    8   53 1
  18    9   10 am
  19    9   12 2
  20   10   11 am
  21   10   54 1
  22   11   13 2
  23   11   14 2
  24   15   16 1
  25   15   17 1
  26   16   19 2
  27   16   55 1
  28   17   18 2
  29   17   26 1
  30   18   19 1
  31   19   20 1
  32   20   21 ar
  33   20   22 ar
  34   21   39 1
  35   21   25 ar
  36   22   23 ar
  37   22   46 1
  38   23   24 ar
  39   23   56 1
  40   24   25 ar
  41   24   47 1
  42   25   57 1
  43   26   27 1
  44   26   58 1
  45   26   59 1
  46   27   28 ar
  47   27   29 ar
  48   28   32 ar
  49   28   60 1
  50   29   30 ar
  51   29   61 1
  52   30   31 ar
  53   30   62 1
  54   31   32 ar
  55   31   33 1
  56   32   63 1
  57   33   34 ar
  58   33   35 ar
  59   34   38 ar
  60   34   64 1
  61   35   36 ar
  62   35   65 1
  63   36   37 ar
  64   36   66 1
  65   37   38 ar
  66   37   40 1
  67   38   67 1
  68   40   41 1
  69   40   45 1
  70   40   68 1
  71   41   42 1
  72   41   69 1
  73   41   70 1
  74   42   43 1
  75   42   71 1
  76   42   72 1
  77   43   44 1
  78   43   73 1
  79   43   74 1
  80   44   45 1
  81   44   75 1
  82   44   76 1
  83   45   77 1
  84   45   78 1

#	End of record

