#	Name: ASD01913726
#	Creating user name:	WinNT
#	Creation time:	15. 06. 2019 20:02

#	Modifying user name:	WinNT
#	Modification time:	15. 06. 2019 20:02

#	Program:	/corina/corina34_cracker 3.40 0067  02.08.2006

@<TRIPOS>MOLECULE
ASD01913726
  50   51    0    0    0
SMALL
NO_CHARGES


@<TRIPOS>ATOM
   1 O1            -0.0203     1.3127     0.4470 O.3     
   2 C2            -0.0004    -0.0225     0.2172 C.ar    
   3 C3            -1.1450    -0.7764     0.4562 C.ar    
   4 C4            -1.1188    -2.1358     0.2204 C.ar    
   5 C5             0.0708    -2.7067    -0.2547 C.ar    
   6 C6             1.1774    -1.8839    -0.4700 C.ar    
   7 N7             1.1066    -0.5902    -0.2367 N.ar    
   8 C8             0.1516    -4.1561    -0.5224 C.2     
   9 N9             1.3305    -4.7139    -0.8624 N.am    
  10 O10           -0.8454    -4.8466    -0.4363 O.2     
  11 C11            1.4106    -6.1524    -1.1281 C.3     
  12 C12            1.1846     2.0344     0.1833 C.3     
  13 C13            0.9744     3.4938     0.4946 C.ar    
  14 C14            1.2374     3.9744     1.7637 C.ar    
  15 C15            1.0445     5.3131     2.0508 C.ar    
  16 C16            0.5886     6.1721     1.0692 C.ar    
  17 C17            0.3253     5.6919    -0.2027 C.ar    
  18 C18            0.5242     4.3524    -0.4905 C.ar    
  19 F19           -0.1205     6.5308    -1.1632 F       
  20 C20           -2.3383    -2.9860     0.4676 C.3     
  21 C21            2.5961    -6.4349    -2.0531 C.3     
  22 C22            3.8892    -5.9674    -1.3821 C.3     
  23 C23            2.6798    -7.9371    -2.3307 C.3     
  24 C24            2.4049    -5.6825    -3.3716 C.3     
  25 C25            1.6018    -6.9047     0.1903 C.3     
  26 H26           -2.0440    -0.3030     0.8225 H       
  27 H27            2.0992    -2.3119    -0.8353 H       
  28 H28            2.1258    -4.1630    -0.9311 H       
  29 H29            0.4894    -6.4854    -1.6062 H       
  30 H30            1.9873     1.6417     0.8075 H       
  31 H31            1.4531     1.9219    -0.8671 H       
  32 H32            1.5934     3.3036     2.5316 H       
  33 H33            1.2500     5.6874     3.0428 H       
  34 H34            0.4374     7.2176     1.2940 H       
  35 H35            0.3191     3.9767    -1.4821 H       
  36 H36           -2.8803    -3.1246    -0.4678 H       
  37 H37           -2.0315    -3.9567     0.8571 H       
  38 H38           -2.9850    -2.4916     1.1925 H       
  39 H39            4.0255    -6.5034    -0.4428 H       
  40 H40            4.7338    -6.1686    -2.0411 H       
  41 H41            3.8296    -4.8971    -1.1844 H       
  42 H42            1.7586    -8.2702    -2.8087 H       
  43 H43            3.5244    -8.1384    -2.9896 H       
  44 H44            2.8161    -8.4731    -1.3914 H       
  45 H45            2.3453    -4.6123    -3.1738 H       
  46 H46            3.2495    -5.8838    -4.0305 H       
  47 H47            1.4837    -6.0156    -3.8496 H       
  48 H48            0.7572    -6.7035     0.8493 H       
  49 H49            1.6614    -7.9750    -0.0074 H       
  50 H50            2.5231    -6.5717     0.6684 H       
@<TRIPOS>BOND
   1    1    2 1
   2    1   12 1
   3    2    3 ar
   4    2    7 ar
   5    3    4 ar
   6    3   26 1
   7    4    5 ar
   8    4   20 1
   9    5    6 ar
  10    5    8 1
  11    6    7 ar
  12    6   27 1
  13    8    9 am
  14    8   10 2
  15    9   11 1
  16    9   28 1
  17   11   21 1
  18   11   25 1
  19   11   29 1
  20   12   13 1
  21   12   30 1
  22   12   31 1
  23   13   14 ar
  24   13   18 ar
  25   14   15 ar
  26   14   32 1
  27   15   16 ar
  28   15   33 1
  29   16   17 ar
  30   16   34 1
  31   17   18 ar
  32   17   19 1
  33   18   35 1
  34   20   36 1
  35   20   37 1
  36   20   38 1
  37   21   22 1
  38   21   23 1
  39   21   24 1
  40   22   39 1
  41   22   40 1
  42   22   41 1
  43   23   42 1
  44   23   43 1
  45   23   44 1
  46   24   45 1
  47   24   46 1
  48   24   47 1
  49   25   48 1
  50   25   49 1
  51   25   50 1

#	End of record

