#	Name: ASD01841001
#	Creating user name:	WinNT
#	Creation time:	15. 06. 2019 19:37

#	Modifying user name:	WinNT
#	Modification time:	15. 06. 2019 19:37

#	Program:	/corina/corina34_cracker 3.40 0067  02.08.2006

@<TRIPOS>MOLECULE
ASD01841001
  51   53    0    0    0
SMALL
NO_CHARGES


@<TRIPOS>ATOM
   1 C1            -0.0178     1.4636     0.0101 C.3     
   2 N2             0.0021    -0.0041     0.0020 N.4     
   3 C3             0.6208    -0.4870    -1.2383 C.3     
   4 C4             2.0795    -0.0286    -1.2972 C.3     
   5 C5             2.1299     1.5015    -1.2619 C.3     
   6 C6             1.4163     1.9970    -0.0007 C.3     
   7 C7            -1.3736    -0.5115     0.0911 C.3     
   8 C8            -1.3647    -2.0356    -0.0425 C.3     
   9 C9            -2.7976    -2.5641     0.0502 C.3     
  10 C10           -2.7887    -4.0882    -0.0834 C.3     
  11 C11           -1.9605    -4.6848     1.0253 C.ar    
  12 C12           -4.2000    -4.6087     0.0079 C.ar    
  13 O13           -2.2274    -4.4524    -1.3461 O.3     
  14 C14           -1.2884    -5.8756     0.8220 C.ar    
  15 C15           -0.5288    -6.4229     1.8390 C.ar    
  16 C16           -0.4408    -5.7791     3.0591 C.ar    
  17 C17           -1.1121    -4.5879     3.2621 C.ar    
  18 C18           -1.8683    -4.0384     2.2437 C.ar    
  19 C19           -4.5551    -5.7646    -0.6620 C.ar    
  20 C20           -5.8496    -6.2420    -0.5782 C.ar    
  21 C21           -6.7890    -5.5638     0.1758 C.ar    
  22 C22           -6.4337    -4.4085     0.8464 C.ar    
  23 C23           -5.1380    -3.9334     0.7662 C.ar    
  24 H24           -0.5458     1.8242    -0.8727 H       
  25 H25           -0.5288     1.8147     0.9066 H       
  26 H26            0.5329    -0.3366     0.7931 H       
  27 H27            0.5813    -1.5760    -1.2635 H       
  28 H28            0.0792    -0.0848    -2.0945 H       
  29 H29            2.6221    -0.4305    -0.4415 H       
  30 H30            2.5366    -0.3867    -2.2197 H       
  31 H31            3.1686     1.8318    -1.2465 H       
  32 H32            1.6316     1.9031    -2.1442 H       
  33 H33            1.3994     3.0869     0.0035 H       
  34 H34            1.9452     1.6372     0.8818 H       
  35 H35           -1.8017    -0.2337     1.0542 H       
  36 H36           -1.9727    -0.0799    -0.7108 H       
  37 H37           -0.9366    -2.3134    -1.0057 H       
  38 H38           -0.7657    -2.4671     0.7594 H       
  39 H39           -3.2257    -2.2862     1.0133 H       
  40 H40           -3.3966    -2.1325    -0.7517 H       
  41 H41           -2.7106    -4.1021    -2.1070 H       
  42 H42           -1.3572    -6.3785    -0.1313 H       
  43 H43           -0.0043    -7.3535     1.6804 H       
  44 H44            0.1521    -6.2071     3.8539 H       
  45 H45           -1.0436    -4.0852     4.2155 H       
  46 H46           -2.3927    -3.1077     2.4023 H       
  47 H47           -3.8212    -6.2944    -1.2511 H       
  48 H48           -6.1272    -7.1447    -1.1022 H       
  49 H49           -7.8006    -5.9364     0.2407 H       
  50 H50           -7.1677    -3.8784     1.4353 H       
  51 H51           -4.8604    -3.0307     1.2902 H       
@<TRIPOS>BOND
   1    1    2 1
   2    1    6 1
   3    1   24 1
   4    1   25 1
   5    2    3 1
   6    2    7 1
   7    2   26 1
   8    3    4 1
   9    3   27 1
  10    3   28 1
  11    4    5 1
  12    4   29 1
  13    4   30 1
  14    5    6 1
  15    5   31 1
  16    5   32 1
  17    6   33 1
  18    6   34 1
  19    7    8 1
  20    7   35 1
  21    7   36 1
  22    8    9 1
  23    8   37 1
  24    8   38 1
  25    9   10 1
  26    9   39 1
  27    9   40 1
  28   10   11 1
  29   10   12 1
  30   10   13 1
  31   11   14 ar
  32   11   18 ar
  33   12   19 ar
  34   12   23 ar
  35   13   41 1
  36   14   15 ar
  37   14   42 1
  38   15   16 ar
  39   15   43 1
  40   16   17 ar
  41   16   44 1
  42   17   18 ar
  43   17   45 1
  44   18   46 1
  45   19   20 ar
  46   19   47 1
  47   20   21 ar
  48   20   48 1
  49   21   22 ar
  50   21   49 1
  51   22   23 ar
  52   22   50 1
  53   23   51 1

#	End of record

