#	Name: ASD03240023
#	Creating user name:	WinNT
#	Creation time:	15. 06. 2019 20:34

#	Modifying user name:	WinNT
#	Modification time:	15. 06. 2019 20:34

#	Program:	/corina/corina34_cracker 3.40 0067  02.08.2006

@<TRIPOS>MOLECULE
ASD03240023
  92   98    0    0    0
SMALL
NO_CHARGES


@<TRIPOS>ATOM
   1 C1            -0.0976    -0.8462     0.4605 C.ar    
   2 C2            -0.4425    -2.2211     0.5012 C.ar    
   3 N3             1.1854    -0.4708     0.5074 N.ar    
   4 C4             2.1374    -1.3822     0.5919 C.ar    
   5 C5             1.7814    -2.7999     0.6338 C.ar    
   6 N6             0.5114    -3.1561     0.5872 N.ar    
   7 C7             2.8408    -3.8311     0.7286 C.ar    
   8 C8             3.5591    -0.9704     0.6436 C.ar    
   9 C9             3.9920     0.1435    -0.0757 C.ar    
  10 C10            5.3177     0.5225    -0.0232 C.ar    
  11 C11            6.2168    -0.1999     0.7408 C.ar    
  12 C12            5.7935    -1.3057     1.4564 C.ar    
  13 C13            4.4694    -1.6915     1.4162 C.ar    
  14 C14            2.6188    -4.9977     1.4598 C.ar    
  15 C15            3.6094    -5.9545     1.5444 C.ar    
  16 C16            4.8208    -5.7584     0.9058 C.ar    
  17 C17            5.0470    -4.6032     0.1790 C.ar    
  18 C18            4.0620    -3.6417     0.0822 C.ar    
  19 C19            5.8987    -6.8071     1.0026 C.3     
  20 N20            5.7504    -7.7651    -0.1011 N.3     
  21 C21            6.9123    -8.6595    -0.1814 C.3     
  22 C22            6.7924    -9.5435    -1.4248 C.3     
  23 C23            5.5003   -10.3609    -1.3412 C.3     
  24 C24            4.3098    -9.4071    -1.2096 C.3     
  25 C25            4.5017    -8.5270     0.0276 C.3     
  26 N26            5.3508   -11.1659    -2.5560 N.am    
  27 C27            5.2730   -12.5557    -2.6085 C.ar    
  28 C28            5.1361   -12.9016    -3.9543 C.ar    
  29 N29            5.1350   -11.7114    -4.6778 N.am    
  30 C30            5.2593   -10.6882    -3.8115 C.2     
  31 C31            5.3058   -13.5478    -1.6404 C.ar    
  32 C32            5.2029   -14.8741    -2.0116 C.ar    
  33 C33            5.0672   -15.2171    -3.3460 C.ar    
  34 C34            5.0335   -14.2359    -4.3173 C.ar    
  35 O35            5.2927    -9.5109    -4.1175 O.2     
  36 C36           -1.7963    -2.5942     0.4508 C.ar    
  37 C37           -2.7726    -1.6165     0.3623 C.ar    
  38 C38           -2.4175    -0.2566     0.3227 C.ar    
  39 C39           -1.1157     0.1233     0.3762 C.ar    
  40 C40           -4.1978    -2.0049     0.3086 C.2     
  41 O41           -4.5093    -3.1794     0.3422 O.2     
  42 N42           -5.1518    -1.0568     0.2224 N.am    
  43 C43           -6.5643    -1.4418     0.1692 C.3     
  44 C44           -7.4322    -0.1853     0.0744 C.3     
  45 N45           -8.8485    -0.5713     0.0210 N.3     
  46 C46           -9.2722    -1.1943     1.2821 C.3     
  47 C47           -9.6966     0.5824    -0.3071 C.3     
  48 C48          -10.5928    -1.9361     1.0659 C.3     
  49 C49           -9.5871     0.8869    -1.8026 C.3     
  50 H50            3.2911     0.7080    -0.6727 H       
  51 H51            5.6542     1.3846    -0.5799 H       
  52 H52            7.2536     0.1004     0.7785 H       
  53 H53            6.5002    -1.8659     2.0508 H       
  54 H54            4.1401    -2.5549     1.9753 H       
  55 H55            1.6736    -5.1518     1.9591 H       
  56 H56            3.4389    -6.8582     2.1107 H       
  57 H57            5.9947    -4.4556    -0.3175 H       
  58 H58            4.2396    -2.7402    -0.4855 H       
  59 H59            6.8767    -6.3298     0.9405 H       
  60 H60            5.8104    -7.3321     1.9537 H       
  61 H61            7.8241    -8.0655    -0.2446 H       
  62 H62            6.9493    -9.2876     0.7087 H       
  63 H63            6.7693    -8.9165    -2.3162 H       
  64 H64            7.6471   -10.2180    -1.4756 H       
  65 H65            5.5397   -11.0165    -0.4712 H       
  66 H66            4.2476    -8.7780    -2.0976 H       
  67 H67            3.3908    -9.9841    -1.1067 H       
  68 H68            4.5499    -9.1558     0.9166 H       
  69 H69            3.6627    -7.8369     0.1161 H       
  70 H70            5.0544   -11.6328    -5.6413 H       
  71 H71            5.4120   -13.2841    -0.5985 H       
  72 H72            5.2288   -15.6470    -1.2577 H       
  73 H73            4.9872   -16.2564    -3.6285 H       
  74 H74            4.9271   -14.5073    -5.3572 H       
  75 H75           -2.0736    -3.6376     0.4806 H       
  76 H76           -3.1901     0.4948     0.2532 H       
  77 H77           -0.8591     1.1719     0.3451 H       
  78 H78           -4.9032    -0.1196     0.1956 H       
  79 H79           -6.7371    -2.0695    -0.7050 H       
  80 H80           -6.8242    -1.9956     1.0713 H       
  81 H81           -7.2593     0.4424     0.9486 H       
  82 H82           -7.1723     0.3686    -0.8277 H       
  83 H83           -8.5096    -1.8991     1.6133 H       
  84 H84           -9.4085    -0.4234     2.0405 H       
  85 H85          -10.7328     0.3543    -0.0577 H       
  86 H86           -9.3676     1.4497     0.2652 H       
  87 H87          -11.3859    -1.2155     0.8663 H       
  88 H88          -10.4947    -2.6129     0.2171 H       
  89 H89          -10.8386    -2.5085     1.9604 H       
  90 H90           -9.9232     0.0222    -2.3749 H       
  91 H91          -10.2106     1.7475    -2.0447 H       
  92 H92           -8.5497     1.1077    -2.0534 H       
@<TRIPOS>BOND
   1    1    2 ar
   2    1    3 ar
   3    1   39 ar
   4    2   36 ar
   5    2    6 ar
   6    3    4 ar
   7    4    5 ar
   8    4    8 1
   9    5    6 ar
  10    5    7 1
  11    7   14 ar
  12    7   18 ar
  13    8    9 ar
  14    8   13 ar
  15    9   10 ar
  16    9   50 1
  17   10   11 ar
  18   10   51 1
  19   11   12 ar
  20   11   52 1
  21   12   13 ar
  22   12   53 1
  23   13   54 1
  24   14   15 ar
  25   14   55 1
  26   15   16 ar
  27   15   56 1
  28   16   17 ar
  29   16   19 1
  30   17   18 ar
  31   17   57 1
  32   18   58 1
  33   19   20 1
  34   19   59 1
  35   19   60 1
  36   20   21 1
  37   20   25 1
  38   21   22 1
  39   21   61 1
  40   21   62 1
  41   22   23 1
  42   22   63 1
  43   22   64 1
  44   23   24 1
  45   23   26 1
  46   23   65 1
  47   24   25 1
  48   24   66 1
  49   24   67 1
  50   25   68 1
  51   25   69 1
  52   26   27 1
  53   26   30 am
  54   27   28 ar
  55   27   31 ar
  56   28   29 1
  57   28   34 ar
  58   29   30 am
  59   29   70 1
  60   30   35 2
  61   31   32 ar
  62   31   71 1
  63   32   33 ar
  64   32   72 1
  65   33   34 ar
  66   33   73 1
  67   34   74 1
  68   36   37 ar
  69   36   75 1
  70   37   38 ar
  71   37   40 1
  72   38   39 ar
  73   38   76 1
  74   39   77 1
  75   40   41 2
  76   40   42 am
  77   42   43 1
  78   42   78 1
  79   43   44 1
  80   43   79 1
  81   43   80 1
  82   44   45 1
  83   44   81 1
  84   44   82 1
  85   45   46 1
  86   45   47 1
  87   46   48 1
  88   46   83 1
  89   46   84 1
  90   47   49 1
  91   47   85 1
  92   47   86 1
  93   48   87 1
  94   48   88 1
  95   48   89 1
  96   49   90 1
  97   49   91 1
  98   49   92 1

#	End of record

