#	Name: ASD01840526
#	Creating user name:	WinNT
#	Creation time:	15. 06. 2019 19:37

#	Modifying user name:	WinNT
#	Modification time:	15. 06. 2019 19:37

#	Program:	/corina/corina34_cracker 3.40 0067  02.08.2006

@<TRIPOS>MOLECULE
ASD01840526
  46   49    0    0    0
SMALL
NO_CHARGES


@<TRIPOS>ATOM
   1 C1             2.5883    -0.3953     1.0314 C.3     
   2 C2             1.3187    -1.0586     0.5630 C.ar    
   3 C3             1.2835    -1.6973    -0.6461 C.ar    
   4 C4             0.0824    -2.2996    -1.0394 C.ar    
   5 C5            -0.0511    -3.0062    -2.3154 C.2     
   6 O6             0.8937    -3.0900    -3.0800 O.2     
   7 N7            -1.2399    -3.5631    -2.6281 N.am    
   8 N8            -2.3356    -3.4805    -1.7684 N.2     
   9 C9            -2.2851    -2.8692    -0.6229 C.2     
  10 C10           -1.0421    -2.2302    -0.1865 C.ar    
  11 N11           -0.9559    -1.5969     0.9787 N.ar    
  12 C12            0.1735    -1.0285     1.3656 C.ar    
  13 N13            0.2220    -0.3837     2.5901 N.3     
  14 C14           -0.7142     0.7471     2.6268 C.3     
  15 C15           -0.5302     1.5213     3.9340 C.3     
  16 C16           -0.7864     0.5837     5.1172 C.3     
  17 C17            0.1686    -0.6099     5.0286 C.3     
  18 C18           -0.0357    -1.3222     3.6897 C.3     
  19 O19           -0.5606     1.2863     6.3409 O.3     
  20 C20           -1.2092     0.8285     7.4440 C.ar    
  21 C21           -1.9554    -0.3401     7.3749 C.ar    
  22 C22           -2.6172    -0.8112     8.4940 C.ar    
  23 C23           -2.5409    -0.1226     9.6869 C.ar    
  24 C24           -1.7927     1.0541     9.7663 C.ar    
  25 C25           -1.1208     1.5249     8.6376 C.ar    
  26 C26           -1.7110     1.7718    11.0028 C.1     
  27 N27           -1.6462     2.3411    11.9837 N.1     
  28 H28            3.1534    -1.0901     1.6526 H       
  29 H29            3.1886    -0.1091     0.1678 H       
  30 H30            2.3410     0.4931     1.6125 H       
  31 H31            2.1574    -1.7356    -1.2796 H       
  32 H32           -1.3350    -4.0323    -3.4718 H       
  33 H33           -3.1610    -2.8321     0.0078 H       
  34 H34           -0.5185     1.4082     1.7826 H       
  35 H35           -1.7367     0.3742     2.5664 H       
  36 H36            0.4881     1.9062     3.9887 H       
  37 H37           -1.2359     2.3512     3.9679 H       
  38 H38           -1.8166     0.2291     5.0844 H       
  39 H39            1.1979    -0.2584     5.1005 H       
  40 H40           -0.0378    -1.3025     5.8446 H       
  41 H41           -1.0613    -1.6855     3.6243 H       
  42 H42            0.6529    -2.1641     3.6174 H       
  43 H43           -2.0194    -0.8832     6.4436 H       
  44 H44           -3.1961    -1.7210     8.4338 H       
  45 H45           -3.0596    -0.4929    10.5588 H       
  46 H46           -0.5371     2.4318     8.6937 H       
@<TRIPOS>BOND
   1    1    2 1
   2    1   28 1
   3    1   29 1
   4    1   30 1
   5    2   12 ar
   6    2    3 ar
   7    3    4 ar
   8    3   31 1
   9    4   10 ar
  10    4    5 1
  11    5    6 2
  12    5    7 am
  13    7    8 1
  14    7   32 1
  15    8    9 2
  16    9   10 1
  17    9   33 1
  18   10   11 ar
  19   11   12 ar
  20   12   13 1
  21   13   18 1
  22   13   14 1
  23   14   15 1
  24   14   34 1
  25   14   35 1
  26   15   16 1
  27   15   36 1
  28   15   37 1
  29   16   17 1
  30   16   19 1
  31   16   38 1
  32   17   18 1
  33   17   39 1
  34   17   40 1
  35   18   41 1
  36   18   42 1
  37   19   20 1
  38   20   25 ar
  39   20   21 ar
  40   21   22 ar
  41   21   43 1
  42   22   23 ar
  43   22   44 1
  44   23   24 ar
  45   23   45 1
  46   24   25 ar
  47   24   26 1
  48   25   46 1
  49   26   27 3

#	End of record

