#	Name: ASD03331593
#	Creating user name:	WinNT
#	Creation time:	15. 06. 2019 20:39

#	Modifying user name:	WinNT
#	Modification time:	15. 06. 2019 20:39

#	Program:	/corina/corina34_cracker 3.40 0067  02.08.2006

@<TRIPOS>MOLECULE
ASD03331593
  46   48    0    0    0
SMALL
NO_CHARGES


@<TRIPOS>ATOM
   1 C1            -0.0180     1.4750     0.0102 C.ar    
   2 C2             0.0021    -0.0041     0.0020 C.2     
   3 N3            -1.0252    -0.8163     0.3867 N.pl3   
   4 C4            -0.5989    -2.1005     0.2524 C.2     
   5 C5             0.6704    -2.0540    -0.2373 C.2     
   6 N6             1.0085    -0.7538    -0.3816 N.2     
   7 C7             1.5211    -3.2137    -0.5579 C.2     
   8 O8             1.1001    -4.3420    -0.3884 O.2     
   9 N9             2.7657    -3.0240    -1.0390 N.am    
  10 C10            3.6114    -4.1769    -1.3578 C.3     
  11 C11            2.9277    -5.0307    -2.4276 C.3     
  12 C12           -2.3544    -0.3961     0.8412 C.3     
  13 C13           -2.9345    -1.4708     1.7647 C.3     
  14 C14           -3.6359    -2.5432     0.9339 C.3     
  15 O15           -2.7163    -3.1971     0.0675 O.3     
  16 C16           -1.3968    -3.3276     0.6078 C.3     
  17 C17            4.9632    -3.6884    -1.8821 C.3     
  18 C18            1.1793     2.1911    -0.0016 C.ar    
  19 C19            1.1546     3.5722     0.0061 C.ar    
  20 C20           -0.0584     4.2459     0.0260 C.ar    
  21 C21           -1.2490     3.5376     0.0381 C.ar    
  22 C22           -1.2345     2.1584     0.0238 C.ar    
  23 F23           -0.0785     5.5967     0.0339 F       
  24 F24            2.3127     4.2678    -0.0052 F       
  25 C25            3.8266    -5.0158    -0.0965 C.3     
  26 H26            3.1014    -2.1240    -1.1742 H       
  27 H27            2.7744    -4.4330    -3.3262 H       
  28 H28            3.5570    -5.8885    -2.6648 H       
  29 H29            1.9647    -5.3787    -2.0541 H       
  30 H30           -2.2726     0.5453     1.3845 H       
  31 H31           -3.0090    -0.2644    -0.0204 H       
  32 H32           -2.1290    -1.9274     2.3400 H       
  33 H33           -3.6516    -1.0140     2.4467 H       
  34 H34           -4.0833    -3.2787     1.6024 H       
  35 H35           -4.4209    -2.0779     0.3377 H       
  36 H36           -0.9157    -4.2103     0.1866 H       
  37 H37           -1.4544    -3.4240     1.6920 H       
  38 H38            5.4503    -3.0801    -1.1199 H       
  39 H39            5.5925    -4.5462    -2.1193 H       
  40 H40            4.8099    -3.0907    -2.7807 H       
  41 H41            2.1233     1.6668    -0.0163 H       
  42 H42           -2.1905     4.0664     0.0539 H       
  43 H43           -2.1637     1.6079     0.0333 H       
  44 H44            2.8636    -5.3638     0.2771 H       
  45 H45            4.4559    -5.8736    -0.3337 H       
  46 H46            4.3137    -4.4076     0.6657 H       
@<TRIPOS>BOND
   1    1    2 1
   2    1   18 ar
   3    1   22 ar
   4    2    3 1
   5    2    6 2
   6    3    4 1
   7    3   12 1
   8    4    5 2
   9    4   16 1
  10    5    6 1
  11    5    7 1
  12    7    8 2
  13    7    9 am
  14    9   10 1
  15    9   26 1
  16   10   11 1
  17   10   17 1
  18   10   25 1
  19   11   27 1
  20   11   28 1
  21   11   29 1
  22   12   13 1
  23   12   30 1
  24   12   31 1
  25   13   14 1
  26   13   32 1
  27   13   33 1
  28   14   15 1
  29   14   34 1
  30   14   35 1
  31   15   16 1
  32   16   36 1
  33   16   37 1
  34   17   38 1
  35   17   39 1
  36   17   40 1
  37   18   19 ar
  38   18   41 1
  39   19   20 ar
  40   19   24 1
  41   20   21 ar
  42   20   23 1
  43   21   22 ar
  44   21   42 1
  45   22   43 1
  46   25   44 1
  47   25   45 1
  48   25   46 1

#	End of record

