#	Name: ASD03331846
#	Creating user name:	WinNT
#	Creation time:	15. 06. 2019 20:40

#	Modifying user name:	WinNT
#	Modification time:	15. 06. 2019 20:40

#	Program:	/corina/corina34_cracker 3.40 0067  02.08.2006

@<TRIPOS>MOLECULE
ASD03331846
  48   51    0    0    0
SMALL
NO_CHARGES


@<TRIPOS>ATOM
   1 C1             8.3980    -0.3451     1.1528 C.ar    
   2 C2             8.8967     0.0898     2.3692 C.ar    
   3 C3             8.3563     1.2082     2.9812 C.ar    
   4 C4             7.3184     1.8923     2.3792 C.ar    
   5 C5             6.8172     1.4581     1.1593 C.ar    
   6 C6             7.3605     0.3365     0.5473 C.ar    
   7 N7             5.7645     2.1500     0.5474 N.am    
   8 C8             5.6911     3.4920     0.6488 C.2     
   9 N9             4.7315     4.1665    -0.0150 N.am    
  10 O10            6.4907     4.0942     1.3390 O.2     
  11 C11            4.5946     5.5476     0.1654 C.ar    
  12 C12            3.1928     7.4910     0.3373 C.ar    
  13 C13            3.3321     6.1274     0.1594 C.ar    
  14 C14            5.7188     6.3369     0.3558 C.ar    
  15 C15            5.5776     7.7106     0.5354 C.ar    
  16 C16            4.3069     8.2845     0.5226 C.ar    
  17 C17            6.7755     8.5608     0.7401 C.ar    
  18 C18            6.6439     9.9402     0.9211 C.ar    
  19 C19            7.7896    10.6926     1.1084 C.ar    
  20 N20            8.9676    10.0888     1.1107 N.ar    
  21 C21            9.0629     8.7786     0.9366 C.ar    
  22 N22            7.9919     8.0209     0.7596 N.ar    
  23 F23            9.9116    -0.5782     2.9599 F       
  24 N24           10.3139     8.1864     0.9453 N.3     
  25 C25           11.3722     9.1902     1.1606 C.3     
  26 C26           12.1720     8.7515     2.4053 C.3     
  27 C27           11.8814     7.2299     2.4891 C.3     
  28 C28           10.4094     7.1657     2.0106 C.3     
  29 H29            8.8236    -1.2152     0.6751 H       
  30 H30            8.7464     1.5456     3.9301 H       
  31 H31            6.8967     2.7641     2.8572 H       
  32 H32            6.9721    -0.0028    -0.4016 H       
  33 H33            5.0882     1.6635     0.0507 H       
  34 H34            4.1356     3.6947    -0.6177 H       
  35 H35            2.2092     7.9370     0.3315 H       
  36 H36            2.4572     5.5109     0.0151 H       
  37 H37            6.7008     5.8876     0.3652 H       
  38 H38            4.1942     9.3497     0.6606 H       
  39 H39            5.6706    10.4081     0.9145 H       
  40 H40            7.7237    11.7611     1.2509 H       
  41 H41           12.0295     9.2282     0.2919 H       
  42 H42           10.9251    10.1692     1.3332 H       
  43 H43           13.2373     8.9331     2.2626 H       
  44 H44           11.8088     9.2629     3.2967 H       
  45 H45           12.5344     6.6701     1.8195 H       
  46 H46           11.9748     6.8704     3.5139 H       
  47 H47            9.7331     7.4081     2.8303 H       
  48 H48           10.1832     6.1773     1.6106 H       
@<TRIPOS>BOND
   1    1    2 ar
   2    1    6 ar
   3    1   29 1
   4    2    3 ar
   5    2   23 1
   6    3    4 ar
   7    3   30 1
   8    4    5 ar
   9    4   31 1
  10    5    6 ar
  11    5    7 1
  12    6   32 1
  13    7    8 am
  14    7   33 1
  15    8    9 am
  16    8   10 2
  17    9   11 1
  18    9   34 1
  19   11   14 ar
  20   11   13 ar
  21   12   13 ar
  22   12   16 ar
  23   12   35 1
  24   13   36 1
  25   14   15 ar
  26   14   37 1
  27   15   16 ar
  28   15   17 1
  29   16   38 1
  30   17   18 ar
  31   17   22 ar
  32   18   19 ar
  33   18   39 1
  34   19   20 ar
  35   19   40 1
  36   20   21 ar
  37   21   22 ar
  38   21   24 1
  39   24   25 1
  40   24   28 1
  41   25   26 1
  42   25   41 1
  43   25   42 1
  44   26   27 1
  45   26   43 1
  46   26   44 1
  47   27   28 1
  48   27   45 1
  49   27   46 1
  50   28   47 1
  51   28   48 1

#	End of record

