#	Name: ASD01883993
#	Creating user name:	WinNT
#	Creation time:	15. 06. 2019 19:47

#	Modifying user name:	WinNT
#	Modification time:	15. 06. 2019 19:47

#	Program:	/corina/corina34_cracker 3.40 0067  02.08.2006

@<TRIPOS>MOLECULE
ASD01883993
  50   53    0    0    0
SMALL
NO_CHARGES


@<TRIPOS>ATOM
   1 C1            -0.0941     1.4763    -0.0835 C.ar    
   2 C2            -0.1381     0.0722    -0.1521 C.ar    
   3 C3            -1.3613    -0.5754    -0.1308 C.ar    
   4 C4            -2.5334     0.1617    -0.0421 C.ar    
   5 C5            -2.4866     1.5520     0.0253 C.ar    
   6 C6            -1.2884     2.2041     0.0116 C.ar    
   7 C7             1.1936     2.1744    -0.1052 C.2     
   8 O8             2.2279     1.5405    -0.0796 O.2     
   9 C9             1.2337     3.6799    -0.1593 C.3     
  10 O10            1.0109    -0.6428    -0.2391 O.3     
  11 C11           -1.4198    -2.0794    -0.2043 C.3     
  12 O12           -3.7311    -0.4752    -0.0213 O.3     
  13 C13           -4.8992     0.3428     0.0713 C.3     
  14 C14           -6.1259    -0.5326     0.0813 C.ar    
  15 C15           -6.6350    -0.9935     1.2814 C.ar    
  16 C16           -7.7593    -1.7960     1.2934 C.ar    
  17 C17           -8.3778    -2.1395     0.0998 C.ar    
  18 C18           -7.8649    -1.6756    -1.1031 C.ar    
  19 C19           -6.7436    -0.8687    -1.1092 C.ar    
  20 O20           -9.4837    -2.9292     0.1088 O.3     
  21 C21          -10.6204    -2.4272     0.6536 C.ar    
  22 C22          -11.7366    -3.2406     0.7816 C.ar    
  23 C23          -12.8991    -2.7096     1.3447 C.ar    
  24 C24          -12.8839    -1.3719     1.7568 C.ar    
  25 C25          -11.7317    -0.6321     1.5935 C.ar    
  26 N26          -10.6498    -1.1688     1.0617 N.ar    
  27 C27          -14.1155    -3.5395     1.5013 C.2     
  28 N28          -15.3006    -3.1502     2.0279 N.pl3   
  29 N29          -16.0891    -4.1701     1.9789 N.2     
  30 N30          -15.4601    -5.1625     1.4540 N.2     
  31 N31          -14.2608    -4.8030     1.1500 N.2     
  32 H32           -3.4044     2.1172     0.0934 H       
  33 H33           -1.2603     3.2824     0.0645 H       
  34 H34            0.2210     4.0665    -0.2742 H       
  35 H35            1.6672     4.0653     0.7635 H       
  36 H36            1.8419     3.9970    -1.0065 H       
  37 H37            1.3833    -0.8945     0.6170 H       
  38 H38           -1.3886    -2.4939     0.8033 H       
  39 H39           -2.3451    -2.3836    -0.6937 H       
  40 H40           -0.5682    -2.4487    -0.7756 H       
  41 H41           -4.8620     0.9267     0.9909 H       
  42 H42           -4.9402     1.0159    -0.7851 H       
  43 H43           -6.1530    -0.7262     2.2102 H       
  44 H44           -8.1563    -2.1561     2.2310 H       
  45 H45           -8.3445    -1.9415    -2.0335 H       
  46 H46           -6.3440    -0.5074    -2.0452 H       
  47 H47          -11.7073    -4.2682     0.4507 H       
  48 H48          -13.7633    -0.9249     2.1965 H       
  49 H49          -11.7132     0.4005     1.9092 H       
  50 H50          -15.5159    -2.2710     2.3766 H       
@<TRIPOS>BOND
   1    1    2 ar
   2    1    7 1
   3    1    6 ar
   4    2    3 ar
   5    2   10 1
   6    3    4 ar
   7    3   11 1
   8    4    5 ar
   9    4   12 1
  10    5    6 ar
  11    5   32 1
  12    6   33 1
  13    7    8 2
  14    7    9 1
  15    9   34 1
  16    9   35 1
  17    9   36 1
  18   10   37 1
  19   11   38 1
  20   11   39 1
  21   11   40 1
  22   12   13 1
  23   13   14 1
  24   13   41 1
  25   13   42 1
  26   14   15 ar
  27   14   19 ar
  28   15   16 ar
  29   15   43 1
  30   16   17 ar
  31   16   44 1
  32   17   18 ar
  33   17   20 1
  34   18   19 ar
  35   18   45 1
  36   19   46 1
  37   20   21 1
  38   21   22 ar
  39   21   26 ar
  40   22   23 ar
  41   22   47 1
  42   23   24 ar
  43   23   27 1
  44   24   25 ar
  45   24   48 1
  46   25   26 ar
  47   25   49 1
  48   27   28 1
  49   27   31 2
  50   28   29 1
  51   28   50 1
  52   29   30 2
  53   30   31 1

#	End of record

