#	Name: ASD01816399
#	Creating user name:	WinNT
#	Creation time:	15. 06. 2019 19:35

#	Modifying user name:	WinNT
#	Modification time:	15. 06. 2019 19:35

#	Program:	/corina/corina34_cracker 3.40 0067  02.08.2006

@<TRIPOS>MOLECULE
ASD01816399
  55   60    0    0    0
SMALL
NO_CHARGES


@<TRIPOS>ATOM
   1 C1            -0.0167     1.3813     0.0096 C.ar    
   2 C2             0.0021    -0.0041     0.0020 C.ar    
   3 C3             1.1984    -0.6909    -0.0126 C.ar    
   4 C4             2.4015     0.0059    -0.0198 C.ar    
   5 C5             2.3790     1.4106    -0.0126 C.ar    
   6 C6             1.1663     2.0916     0.0022 C.ar    
   7 N7             3.6053    -0.6772    -0.0336 N.pl3   
   8 C8             4.7971    -0.0586    -0.0411 C.2     
   9 C9             4.9000     1.3103    -0.0351 C.2     
  10 C10            3.6670     2.1302    -0.0205 C.2     
  11 C11            5.9971     2.2729    -0.0405 C.2     
  12 N12            5.4245     3.4961    -0.0299 N.am    
  13 N13            4.0323     3.3799    -0.0181 N.2     
  14 O14            7.1914     2.0229    -0.0516 O.2     
  15 C15            3.5779    -2.1419    -0.0397 C.3     
  16 C16            3.5558    -2.6380    -1.4625 C.ar    
  17 C17            4.7438    -2.8875    -2.1248 C.ar    
  18 C18            4.7268    -3.3418    -3.4290 C.ar    
  19 C19            3.5153    -3.5483    -4.0749 C.ar    
  20 C20            2.3242    -3.2973    -3.4072 C.ar    
  21 C21            2.3476    -2.8481    -2.1013 C.ar    
  22 N22            3.4947    -4.0089    -5.3988 N.pl3   
  23 C23            2.3901    -4.2503    -6.1404 C.2     
  24 C24            2.7970    -4.6802    -7.3573 C.2     
  25 C25            4.1960    -4.7025    -7.3606 C.2     
  26 N26            4.6151    -4.2947    -6.1897 N.2     
  27 C27            6.1261     4.7076    -0.0310 C.ar    
  28 C28            7.0627     4.9673    -1.0244 C.ar    
  29 C29            7.7582     6.1621    -1.0302 C.ar    
  30 C30            7.5273     7.1051    -0.0497 C.ar    
  31 C31            6.5878     6.8541     0.9531 C.ar    
  32 C32            5.8823     5.6507     0.9557 C.ar    
  33 C33            4.8668     5.3718     2.0337 C.3     
  34 C34            6.3465     7.8306     1.9723 C.1     
  35 N35            6.1550     8.6053     2.7808 N.1     
  36 H36           -0.9602     1.9068     0.0169 H       
  37 H37           -0.9289    -0.5516     0.0079 H       
  38 H38            1.2004    -1.7709    -0.0181 H       
  39 H39            1.1506     3.1715     0.0081 H       
  40 H40            5.6983    -0.6536    -0.0518 H       
  41 H41            4.4655    -2.5240     0.4646 H       
  42 H42            2.6859    -2.4908     0.4806 H       
  43 H43            5.6859    -2.7266    -1.6218 H       
  44 H44            5.6549    -3.5358    -3.9460 H       
  45 H45            1.3802    -3.4567    -3.9072 H       
  46 H46            1.4213    -2.6528    -1.5814 H       
  47 H47            1.3668    -4.1235    -5.8190 H       
  48 H48            2.1551    -4.9571    -8.1806 H       
  49 H49            4.8223    -5.0005    -8.1885 H       
  50 H50            7.2481     4.2331    -1.7944 H       
  51 H51            8.4850     6.3580    -1.8046 H       
  52 H52            8.0732     8.0369    -0.0573 H       
  53 H53            3.8893     5.7329     1.7143 H       
  54 H54            4.8159     4.2984     2.2160 H       
  55 H55            5.1609     5.8825     2.9507 H       
@<TRIPOS>BOND
   1    1    2 ar
   2    1    6 ar
   3    1   36 1
   4    2    3 ar
   5    2   37 1
   6    3    4 ar
   7    3   38 1
   8    4    5 ar
   9    4    7 1
  10    5    6 ar
  11    5   10 1
  12    6   39 1
  13    7    8 1
  14    7   15 1
  15    8    9 2
  16    8   40 1
  17    9   10 1
  18    9   11 1
  19   10   13 2
  20   11   12 am
  21   11   14 2
  22   12   13 1
  23   12   27 1
  24   15   16 1
  25   15   41 1
  26   15   42 1
  27   16   17 ar
  28   16   21 ar
  29   17   18 ar
  30   17   43 1
  31   18   19 ar
  32   18   44 1
  33   19   20 ar
  34   19   22 1
  35   20   21 ar
  36   20   45 1
  37   21   46 1
  38   22   23 1
  39   22   26 1
  40   23   24 2
  41   23   47 1
  42   24   25 1
  43   24   48 1
  44   25   26 2
  45   25   49 1
  46   27   28 ar
  47   27   32 ar
  48   28   29 ar
  49   28   50 1
  50   29   30 ar
  51   29   51 1
  52   30   31 ar
  53   30   52 1
  54   31   32 ar
  55   31   34 1
  56   32   33 1
  57   33   53 1
  58   33   54 1
  59   33   55 1
  60   34   35 3

#	End of record

