#	Name: ASD07300617
#	Creating user name:	WinNT
#	Creation time:	15. 06. 2019 21:10

#	Modifying user name:	WinNT
#	Modification time:	15. 06. 2019 21:10

#	Program:	/corina/corina34_cracker 3.40 0067  02.08.2006

@<TRIPOS>MOLECULE
ASD07300617
  56   59    0    0    0
SMALL
NO_CHARGES


@<TRIPOS>ATOM
   1 C1            -0.0173     1.4124    -0.0103 C.2     
   2 C2             0.0021    -0.0041     0.0020 C.2     
   3 N3             1.1769     2.0857    -0.0175 N.pl3   
   4 N4             1.1570    -0.6396     0.0063 N.2     
   5 C5             2.3154     0.0267    -0.0008 C.2     
   6 C6             2.3474     1.3749    -0.0130 C.2     
   7 N7            -1.0019     2.2989    -0.0117 N.2     
   8 C8            -0.4940     3.5297    -0.0253 C.2     
   9 C9             0.8866     3.4255    -0.0284 C.2     
  10 N10           -1.1868    -0.7178     0.0100 N.pl3   
  11 C11           -1.1905    -2.1846    -0.1073 C.3     
  12 C12           -2.0532    -2.7578     1.0228 C.3     
  13 O13           -3.3310    -2.1167     1.0110 O.3     
  14 C14           -3.2817    -0.7089     1.2547 C.3     
  15 C15           -2.4816    -0.0312     0.1422 C.3     
  16 C16            2.9651     4.5233     0.8101 C.ar    
  17 C17            1.8560     4.5388    -0.0391 C.ar    
  18 C18            1.6797     5.6286    -0.9011 C.ar    
  19 C19            2.6174     6.6457    -0.8721 C.ar    
  20 C20            3.6884     6.5550    -0.0015 C.ar    
  21 N21            3.8298     5.5161     0.7996 N.ar    
  22 C22            4.7113     7.6612     0.0324 C.3     
  23 C23            4.8472     8.1866     1.4629 C.3     
  24 C24            5.7914     9.3904     1.4766 C.3     
  25 C25            3.4723     8.6108     1.9832 C.3     
  26 O26            5.3763     7.1566     2.3003 O.3     
  27 C27            5.5436     7.5458     3.6651 C.3     
  28 O28           -1.2068     4.6868    -0.0313 O.3     
  29 C29           -2.6311     4.5715    -0.0217 C.3     
  30 H30            3.2438    -0.5250     0.0034 H       
  31 H31            3.2948     1.8933    -0.0188 H       
  32 H32           -1.6082    -2.4747    -1.0714 H       
  33 H33           -0.1719    -2.5625    -0.0193 H       
  34 H34           -2.1824    -3.8299     0.8742 H       
  35 H35           -1.5647    -2.5785     1.9805 H       
  36 H36           -4.2947    -0.3069     1.2731 H       
  37 H37           -2.7977    -0.5221     2.2133 H       
  38 H38           -2.3175     1.0162     0.3953 H       
  39 H39           -3.0315    -0.1008    -0.7963 H       
  40 H40            3.1123     3.6921     1.4838 H       
  41 H41            0.8341     5.6736    -1.5713 H       
  42 H42            2.5142     7.5014    -1.5229 H       
  43 H43            5.6734     7.2770    -0.3065 H       
  44 H44            4.3922     8.4713    -0.6234 H       
  45 H45            5.3878    10.1760     0.8379 H       
  46 H46            5.8882     9.7646     2.4958 H       
  47 H47            6.7709     9.0881     1.1060 H       
  48 H48            2.7997     7.7532     1.9735 H       
  49 H49            3.5691     8.9851     3.0023 H       
  50 H50            3.0687     9.3964     1.3444 H       
  51 H51            5.9492     6.7094     4.2344 H       
  52 H52            6.2308     8.3901     3.7206 H       
  53 H53            4.5786     7.8347     4.0815 H       
  54 H54           -2.9571     4.0221    -0.9049 H       
  55 H55           -2.9463     4.0380     0.8750 H       
  56 H56           -3.0762     5.5664    -0.0279 H       
@<TRIPOS>BOND
   1    1    2 1
   2    1    3 1
   3    1    7 2
   4    2    4 2
   5    2   10 1
   6    3    6 1
   7    3    9 1
   8    4    5 1
   9    5    6 2
  10    5   30 1
  11    6   31 1
  12    7    8 1
  13    8    9 2
  14    8   28 1
  15    9   17 1
  16   10   11 1
  17   10   15 1
  18   11   12 1
  19   11   32 1
  20   11   33 1
  21   12   13 1
  22   12   34 1
  23   12   35 1
  24   13   14 1
  25   14   15 1
  26   14   36 1
  27   14   37 1
  28   15   38 1
  29   15   39 1
  30   16   17 ar
  31   16   21 ar
  32   16   40 1
  33   17   18 ar
  34   18   19 ar
  35   18   41 1
  36   19   20 ar
  37   19   42 1
  38   20   21 ar
  39   20   22 1
  40   22   23 1
  41   22   43 1
  42   22   44 1
  43   23   24 1
  44   23   25 1
  45   23   26 1
  46   24   45 1
  47   24   46 1
  48   24   47 1
  49   25   48 1
  50   25   49 1
  51   25   50 1
  52   26   27 1
  53   27   51 1
  54   27   52 1
  55   27   53 1
  56   28   29 1
  57   29   54 1
  58   29   55 1
  59   29   56 1

#	End of record

