#	Name: ASD01884508
#	Creating user name:	WinNT
#	Creation time:	15. 06. 2019 19:48

#	Modifying user name:	WinNT
#	Modification time:	15. 06. 2019 19:48

#	Program:	/corina/corina34_cracker 3.40 0067  02.08.2006

@<TRIPOS>MOLECULE
ASD01884508
  46   48    0    0    0
SMALL
NO_CHARGES


@<TRIPOS>ATOM
   1 C1            -0.0164     1.3598     0.0095 C.2     
   2 C2             0.0021    -0.0041     0.0020 C.2     
   3 C3             1.2342    -0.6727    -0.0133 C.2     
   4 C4             2.3874     0.0358    -0.0205 C.2     
   5 N5             2.3670     1.3933    -0.0126 N.am    
   6 C6             1.1996     2.0643     0.0017 C.2     
   7 C7             3.6294     2.1366    -0.0197 C.3     
   8 O8             1.1975     3.2849     0.0083 O.2     
   9 C9             4.0495     2.3996    -1.4429 C.ar    
  10 C10            3.6347     3.5519    -2.0840 C.ar    
  11 C11            4.0197     3.7936    -3.3893 C.ar    
  12 C12            4.8204     2.8821    -4.0542 C.ar    
  13 C13            5.2352     1.7290    -3.4120 C.ar    
  14 C14            4.8542     1.4911    -2.1048 C.ar    
  15 Cl15           5.3039     3.1847    -5.6938 Cl      
  16 C16            1.2747    -2.1791    -0.0213 C.3     
  17 N17            1.1806    -2.6788     1.3569 N.3     
  18 C18            0.9785    -4.1337     1.3767 C.3     
  19 C19            2.3675    -2.3015     2.1359 C.3     
  20 C20            0.6430    -4.5752     2.7780 C.ar    
  21 C21           -0.6753    -4.6191     3.1918 C.ar    
  22 C22           -0.9831    -5.0240     4.4772 C.ar    
  23 C23            0.0273    -5.3855     5.3486 C.ar    
  24 C24            1.3455    -5.3424     4.9345 C.ar    
  25 C25            1.6530    -4.9416     3.6477 C.ar    
  26 H26           -0.9557     1.8927     0.0169 H       
  27 H27           -0.9222    -0.5627     0.0082 H       
  28 H28            3.3339    -0.4842    -0.0324 H       
  29 H29            3.4957     3.0849     0.5008 H       
  30 H30            4.3986     1.5511     0.4839 H       
  31 H31            3.0094     4.2633    -1.5650 H       
  32 H32            3.6953     4.6938    -3.8902 H       
  33 H33            5.8603     1.0170    -3.9305 H       
  34 H34            5.1780     0.5910    -1.6034 H       
  35 H35            0.4372    -2.5620    -0.6046 H       
  36 H36            2.2112    -2.5151    -0.4665 H       
  37 H37            0.1594    -4.3959     0.7072 H       
  38 H38            1.8905    -4.6317     1.0475 H       
  39 H39            2.4540    -1.2152     2.1631 H       
  40 H40            2.2718    -2.6839     3.1521 H       
  41 H41            3.2574    -2.7253     1.6704 H       
  42 H42           -1.4647    -4.3367     2.5110 H       
  43 H43           -2.0129    -5.0577     4.8007 H       
  44 H44           -0.2131    -5.7011     6.3531 H       
  45 H45            2.1349    -5.6245     5.6154 H       
  46 H46            2.6828    -4.9080     3.3242 H       
@<TRIPOS>BOND
   1    1    2 2
   2    1    6 1
   3    1   26 1
   4    2    3 1
   5    2   27 1
   6    3    4 2
   7    3   16 1
   8    4    5 1
   9    4   28 1
  10    5    6 am
  11    5    7 1
  12    6    8 2
  13    7    9 1
  14    7   29 1
  15    7   30 1
  16    9   10 ar
  17    9   14 ar
  18   10   11 ar
  19   10   31 1
  20   11   12 ar
  21   11   32 1
  22   12   13 ar
  23   12   15 1
  24   13   14 ar
  25   13   33 1
  26   14   34 1
  27   16   17 1
  28   16   35 1
  29   16   36 1
  30   17   18 1
  31   17   19 1
  32   18   20 1
  33   18   37 1
  34   18   38 1
  35   19   39 1
  36   19   40 1
  37   19   41 1
  38   20   21 ar
  39   20   25 ar
  40   21   22 ar
  41   21   42 1
  42   22   23 ar
  43   22   43 1
  44   23   24 ar
  45   23   44 1
  46   24   25 ar
  47   24   45 1
  48   25   46 1

#	End of record

