#	Name: ASD01870152
#	Creating user name:	WinNT
#	Creation time:	15. 06. 2019 19:38

#	Modifying user name:	WinNT
#	Modification time:	15. 06. 2019 19:38

#	Program:	/corina/corina34_cracker 3.40 0067  02.08.2006

@<TRIPOS>MOLECULE
ASD01870152
  33   34    0    0    0
SMALL
NO_CHARGES


@<TRIPOS>ATOM
   1 C1             2.0586    -2.2075     1.4635 C.ar    
   2 C2             1.0140    -1.7517     0.6844 C.ar    
   3 C3             1.1607    -0.6082    -0.0858 C.ar    
   4 C4             2.3526     0.0852    -0.0808 C.ar    
   5 C5             3.4173    -0.3659     0.7036 C.ar    
   6 C6             3.2644    -1.5222     1.4804 C.ar    
   7 O7             4.2913    -1.9692     2.2461 O.3     
   8 C8             4.6954     0.3705     0.7135 C.2     
   9 O9             5.6198    -0.0251     1.3973 O.2     
  10 N10            4.8385     1.4819    -0.0354 N.am    
  11 C11            6.0142     2.2347     0.0481 C.ar    
  12 C12            7.2351     1.6000     0.2364 C.ar    
  13 C13            5.9640     3.6182    -0.0629 C.ar    
  14 C14            7.1269     4.3587     0.0200 C.ar    
  15 C15            8.3402     3.7241     0.2129 C.ar    
  16 C16            8.3943     2.3463     0.3185 C.ar    
  17 Cl17          -0.1614    -0.0474    -1.0610 Cl      
  18 C18            7.0734     5.8600    -0.1003 C.3     
  19 F19            5.7480     6.2657    -0.2896 F       
  20 F20            7.5760     6.4397     1.0696 F       
  21 F21            7.8466     6.2681    -1.1924 F       
  22 C22            9.7187     1.6590     0.5291 C.3     
  23 F23            9.9696     1.5401     1.9003 F       
  24 F24            9.6808     0.3860    -0.0500 F       
  25 F25           10.7353     2.4126    -0.0674 F       
  26 H26            1.9353    -3.0965     2.0643 H       
  27 H27            0.0773    -2.2891     0.6745 H       
  28 H28            2.4631     0.9753    -0.6824 H       
  29 H29            4.2998    -1.6073     3.1428 H       
  30 H30            4.1262     1.7596    -0.6323 H       
  31 H31            7.2780     0.5240     0.3190 H       
  32 H32            5.0168     4.1144    -0.2142 H       
  33 H33            9.2482     4.3054     0.2770 H       
@<TRIPOS>BOND
   1    1    2 ar
   2    1    6 ar
   3    1   26 1
   4    2    3 ar
   5    2   27 1
   6    3    4 ar
   7    3   17 1
   8    4    5 ar
   9    4   28 1
  10    5    6 ar
  11    5    8 1
  12    6    7 1
  13    7   29 1
  14    8    9 2
  15    8   10 am
  16   10   11 1
  17   10   30 1
  18   11   12 ar
  19   11   13 ar
  20   12   16 ar
  21   12   31 1
  22   13   14 ar
  23   13   32 1
  24   14   15 ar
  25   14   18 1
  26   15   16 ar
  27   15   33 1
  28   16   22 1
  29   18   19 1
  30   18   20 1
  31   18   21 1
  32   22   23 1
  33   22   24 1
  34   22   25 1

#	End of record

