#	Name: ASD03540532
#	Creating user name:	WinNT
#	Creation time:	15. 06. 2019 20:43

#	Modifying user name:	WinNT
#	Modification time:	15. 06. 2019 20:43

#	Program:	/corina/corina34_cracker 3.40 0067  02.08.2006

@<TRIPOS>MOLECULE
ASD03540532
  70   75    0    0    0
SMALL
NO_CHARGES


@<TRIPOS>ATOM
   1 N1            -0.0161     1.3396     0.0094 N.am    
   2 C2             0.0021    -0.0041     0.0020 C.2     
   3 N3             1.1390    -0.7172    -0.0122 N.am    
   4 C4             2.3459    -0.1106    -0.0200 C.2     
   5 C5             2.3857     1.3633    -0.0129 C.ar    
   6 C6             3.5871     2.0607    -0.0197 C.ar    
   7 C7             3.5659     3.4548    -0.0121 C.ar    
   8 C8             2.3437     4.1382     0.0023 C.ar    
   9 C9             1.1622     3.4519     0.0094 C.ar    
  10 C10            1.1637     2.0628     0.0020 C.ar    
  11 C11            4.8337     4.2115    -0.0186 C.2     
  12 O12            5.8952     3.6190    -0.0307 O.2     
  13 N13            4.8141     5.5591    -0.0113 N.am    
  14 C14            6.0721     6.3100    -0.0178 C.3     
  15 C15            5.7753     7.7874    -0.0074 C.ar    
  16 C16            5.6494     8.4577     1.1954 C.ar    
  17 C17            5.3773     9.8120     1.2076 C.ar    
  18 C18            5.2304    10.4996     0.0116 C.ar    
  19 C19            5.3572     9.8248    -1.1939 C.ar    
  20 C20            5.6349     8.4716    -1.2007 C.ar    
  21 O21            4.9624    11.8319     0.0210 O.3     
  22 C22            4.8240    12.4747    -1.2477 C.3     
  23 C23            1.0697    -2.1806    -0.0189 C.3     
  24 C24            0.9647    -3.5847    -4.0562 C.ar    
  25 C25            2.1863    -3.4116    -3.4070 C.ar    
  26 C26            2.2140    -2.9579    -2.1040 C.ar    
  27 C27            1.0327    -2.6752    -1.4420 C.ar    
  28 C28           -0.1824    -2.8451    -2.0809 C.ar    
  29 C29           -0.2226    -3.2981    -3.3838 C.ar    
  30 C30            0.9285    -4.0658    -5.4576 C.ar    
  31 C31            0.0950    -5.1395    -5.8151 C.ar    
  32 C32            0.0703    -5.5814    -7.1365 C.ar    
  33 C33            0.8615    -4.9651    -8.0847 C.ar    
  34 C34            1.6827    -3.9078    -7.7318 C.ar    
  35 C35            1.7154    -3.4532    -6.4285 C.ar    
  36 N36           -1.5969    -6.8369    -4.9978 N.pl3   
  37 N37           -2.1649    -7.1001    -3.7391 N.2     
  38 N38           -1.6538    -6.2526    -2.9133 N.2     
  39 N39           -0.8233    -5.4826    -3.5184 N.2     
  40 C40           -0.7502    -5.7964    -4.7954 C.2     
  41 O41            3.3721    -0.7626    -0.0320 O.2     
  42 O42           -1.0576    -0.5997     0.0089 O.2     
  43 C43           -1.2992     2.0466     0.0193 C.3     
  44 H44            4.5271     1.5290    -0.0304 H       
  45 H45            2.3349     5.2181     0.0081 H       
  46 H46            0.2260     3.9901     0.0212 H       
  47 H47            3.9672     6.0319    -0.0017 H       
  48 H48            6.6548     6.0502     0.8660 H       
  49 H49            6.6399     6.0598    -0.9139 H       
  50 H50            5.7635     7.9218     2.1261 H       
  51 H51            5.2787    10.3350     2.1473 H       
  52 H52            5.2433    10.3579    -2.1262 H       
  53 H53            5.7384     7.9468    -2.1390 H       
  54 H54            5.7496    12.3662    -1.8129 H       
  55 H55            4.0047    12.0150    -1.8005 H       
  56 H56            4.6120    13.5333    -1.0975 H       
  57 H57            1.9463    -2.5881     0.4847 H       
  58 H58            0.1684    -2.5041     0.5017 H       
  59 H59            3.1092    -3.6323    -3.9228 H       
  60 H60            3.1597    -2.8234    -1.6001 H       
  61 H61           -1.1015    -2.6227    -1.5591 H       
  62 H62           -1.1718    -3.4300    -3.8818 H       
  63 H63           -0.5674    -6.4061    -7.4185 H       
  64 H64            0.8402    -5.3099    -9.1079 H       
  65 H65            2.2984    -3.4331    -8.4814 H       
  66 H66            2.3548    -2.6248    -6.1615 H       
  67 H67           -1.7700    -7.3020    -5.8312 H       
  68 H68           -2.1134     1.3219     0.0192 H       
  69 H69           -1.3652     2.6671     0.9130 H       
  70 H70           -1.3736     2.6768    -0.8669 H       
@<TRIPOS>BOND
   1    1    2 am
   2    1   10 1
   3    1   43 1
   4    2    3 am
   5    2   42 2
   6    3    4 am
   7    3   23 1
   8    4    5 1
   9    4   41 2
  10    5    6 ar
  11    5   10 ar
  12    6    7 ar
  13    6   44 1
  14    7    8 ar
  15    7   11 1
  16    8    9 ar
  17    8   45 1
  18    9   10 ar
  19    9   46 1
  20   11   12 2
  21   11   13 am
  22   13   14 1
  23   13   47 1
  24   14   15 1
  25   14   48 1
  26   14   49 1
  27   15   16 ar
  28   15   20 ar
  29   16   17 ar
  30   16   50 1
  31   17   18 ar
  32   17   51 1
  33   18   19 ar
  34   18   21 1
  35   19   20 ar
  36   19   52 1
  37   20   53 1
  38   21   22 1
  39   22   54 1
  40   22   55 1
  41   22   56 1
  42   23   27 1
  43   23   57 1
  44   23   58 1
  45   24   25 ar
  46   24   29 ar
  47   24   30 1
  48   25   26 ar
  49   25   59 1
  50   26   27 ar
  51   26   60 1
  52   27   28 ar
  53   28   29 ar
  54   28   61 1
  55   29   62 1
  56   30   31 ar
  57   30   35 ar
  58   31   32 ar
  59   31   40 1
  60   32   33 ar
  61   32   63 1
  62   33   34 ar
  63   33   64 1
  64   34   35 ar
  65   34   65 1
  66   35   66 1
  67   36   37 1
  68   36   40 1
  69   36   67 1
  70   37   38 2
  71   38   39 1
  72   39   40 2
  73   43   68 1
  74   43   69 1
  75   43   70 1

#	End of record

