#	Name: ASD01811550
#	Creating user name:	WinNT
#	Creation time:	15. 06. 2019 19:26

#	Modifying user name:	WinNT
#	Modification time:	15. 06. 2019 19:26

#	Program:	/corina/corina34_cracker 3.40 0067  02.08.2006

@<TRIPOS>MOLECULE
ASD01811550
  46   46    0    0    0
SMALL
NO_CHARGES


@<TRIPOS>ATOM
   1 C1             0.2926     1.4453     0.4462 C.3     
   2 C2             0.1925    -0.0434     0.2627 C.2     
   3 C3             1.1908    -0.7911    -0.1111 C.2     
   4 C4             2.5739    -0.2837    -0.3918 C.3     
   5 C5             2.5481     1.2266    -0.6408 C.3     
   6 N6             1.7070     1.8432     0.3997 N.am    
   7 C7             2.2135     2.7360     1.2731 C.2     
   8 O8             3.3865     3.0472     1.2123 O.2     
   9 O9             1.4197     3.2831     2.2130 O.3     
  10 O10            0.9643    -2.1208    -0.2562 O.3     
  11 Si11          -0.5288    -2.5931     0.1999 Si      
  12 C12           -1.7969    -1.8040    -0.9137 C.3     
  13 C13           -0.6593    -4.4472     0.0736 C.3     
  14 C14           -0.8356    -2.0674     1.9606 C.3     
  15 C15            3.9686     1.7890    -0.5586 C.3     
  16 C16            2.0328     4.2370     3.1198 C.3     
  17 C17            2.5933     5.4142     2.3191 C.3     
  18 C18            0.9834     4.7470     4.1095 C.3     
  19 C19            3.1679     3.5551     3.8864 C.3     
  20 H20           -0.2537     1.9482    -0.3517 H       
  21 H21           -0.1323     1.7227     1.4109 H       
  22 H22           -0.7588    -0.5185     0.4513 H       
  23 H23            3.2166    -0.4974     0.4622 H       
  24 H24            2.9708    -0.7877    -1.2731 H       
  25 H25            2.1263     1.4309    -1.6249 H       
  26 H26           -1.5394    -2.0011    -1.9544 H       
  27 H27           -2.7803    -2.2214    -0.6974 H       
  28 H28           -1.8128    -0.7279    -0.7409 H       
  29 H29            0.0827    -4.9089     0.7251 H       
  30 H30           -1.6571    -4.7628     0.3784 H       
  31 H31           -0.4798    -4.7548    -0.9566 H       
  32 H32           -0.8536    -0.9790     2.0170 H       
  33 H33           -1.7934    -2.4646     2.2967 H       
  34 H34           -0.0393    -2.4511     2.5984 H       
  35 H35            4.5933     1.3099    -1.3124 H       
  36 H36            3.9446     2.8641    -0.7366 H       
  37 H37            4.3799     1.5938     0.4317 H       
  38 H38            1.7847     5.9000     1.7730 H       
  39 H39            3.0536     6.1303     2.9999 H       
  40 H40            3.3410     5.0508     1.6141 H       
  41 H41            0.5841     3.9084     4.6799 H       
  42 H42            1.4437     5.4631     4.7903 H       
  43 H43            0.1748     5.2328     3.5634 H       
  44 H44            3.9155     3.1918     3.1813 H       
  45 H45            3.6282     4.2712     4.5671 H       
  46 H46            2.7686     2.7165     4.4568 H       
@<TRIPOS>BOND
   1    1    2 1
   2    1    6 1
   3    1   20 1
   4    1   21 1
   5    2    3 2
   6    2   22 1
   7    3    4 1
   8    3   10 1
   9    4    5 1
  10    4   23 1
  11    4   24 1
  12    5    6 1
  13    5   15 1
  14    5   25 1
  15    6    7 am
  16    7    8 2
  17    7    9 1
  18    9   16 1
  19   10   11 1
  20   11   12 1
  21   11   13 1
  22   11   14 1
  23   12   26 1
  24   12   27 1
  25   12   28 1
  26   13   29 1
  27   13   30 1
  28   13   31 1
  29   14   32 1
  30   14   33 1
  31   14   34 1
  32   15   35 1
  33   15   36 1
  34   15   37 1
  35   16   17 1
  36   16   19 1
  37   16   18 1
  38   17   38 1
  39   17   39 1
  40   17   40 1
  41   18   41 1
  42   18   42 1
  43   18   43 1
  44   19   44 1
  45   19   45 1
  46   19   46 1

#	End of record

