#	Name: ASD03082370
#	Creating user name:	WinNT
#	Creation time:	15. 06. 2019 20:27

#	Modifying user name:	WinNT
#	Modification time:	15. 06. 2019 20:27

#	Program:	/corina/corina34_cracker 3.40 0067  02.08.2006

@<TRIPOS>MOLECULE
ASD03082370
  40   42    0    0    0
SMALL
NO_CHARGES


@<TRIPOS>ATOM
   1 C1            -2.3543     1.1900     1.2069 C.ar    
   2 C2            -2.3241    -0.0178     0.5213 C.ar    
   3 C3            -3.4903    -0.5238    -0.0398 C.ar    
   4 C4            -4.6746     0.1748     0.0858 C.ar    
   5 C5            -4.7010     1.3773     0.7688 C.ar    
   6 C6            -3.5425     1.8836     1.3287 C.ar    
   7 N7            -1.1240    -0.7217     0.3957 N.pl3   
   8 C8            -1.1394    -2.1161     0.2843 C.2     
   9 C9            -0.0238    -2.9358     0.0418 C.2     
  10 N10           -2.1972    -2.8852     0.3938 N.2     
  11 N11           -1.7917    -4.2147     0.2197 N.pl3   
  12 C12           -0.4501    -4.2181     0.0048 C.2     
  13 C13           -2.6204    -5.3399     0.2637 C.ar    
  14 C14           -2.2223    -6.4950     0.9335 C.ar    
  15 C15           -3.8687    -5.3330    -0.3564 C.ar    
  16 C16           -4.6568    -6.4634    -0.2896 C.ar    
  17 N17           -4.2420    -7.5403     0.3504 N.ar    
  18 C18           -3.0696    -7.5841     0.9541 C.ar    
  19 C19           -6.0086    -6.4683    -0.9556 C.3     
  20 H20           -2.7673    -8.4853     1.4669 H       
  21 C21            0.4086    -5.4334    -0.2332 C.3     
  22 C22           -3.5762     3.1939     2.0723 C.3     
  23 F23           -4.8793     3.7031     2.0610 F       
  24 F24           -3.1664     2.9906     3.3943 F       
  25 F25           -2.7144     4.1046     1.4517 F       
  26 C26            1.0396    -5.8437     1.0319 C.1     
  27 N27            1.5266    -6.1603     2.0081 N.1     
  28 H28           -1.4507     1.5840     1.6480 H       
  29 H29           -3.4703    -1.4624    -0.5737 H       
  30 H30           -5.5814    -0.2180    -0.3500 H       
  31 H31           -5.6285     1.9220     0.8649 H       
  32 H32           -0.2801    -0.2437     0.3858 H       
  33 H33            0.9942    -2.6005    -0.0917 H       
  34 H34           -1.2638    -6.5376     1.4293 H       
  35 H35           -4.2143    -4.4549    -0.8816 H       
  36 H36           -5.9065    -6.8191    -1.9826 H       
  37 H37           -6.6800    -7.1315    -0.4102 H       
  38 H38           -6.4172    -5.4578    -0.9558 H       
  39 H39           -0.2103    -6.2472    -0.6111 H       
  40 H40            1.1812    -5.1950    -0.9641 H       
@<TRIPOS>BOND
   1    1    2 ar
   2    1    6 ar
   3    1   28 1
   4    2    3 ar
   5    2    7 1
   6    3    4 ar
   7    3   29 1
   8    4    5 ar
   9    4   30 1
  10    5    6 ar
  11    5   31 1
  12    6   22 1
  13    7    8 1
  14    7   32 1
  15    8    9 1
  16    8   10 2
  17    9   12 2
  18    9   33 1
  19   10   11 1
  20   11   12 1
  21   11   13 1
  22   12   21 1
  23   13   14 ar
  24   13   15 ar
  25   14   18 ar
  26   14   34 1
  27   15   16 ar
  28   15   35 1
  29   16   17 ar
  30   16   19 1
  31   17   18 ar
  32   18   20 1
  33   19   36 1
  34   19   37 1
  35   19   38 1
  36   21   26 1
  37   21   39 1
  38   21   40 1
  39   22   23 1
  40   22   24 1
  41   22   25 1
  42   26   27 3

#	End of record

