#	Name: ASD09116463
#	Creating user name:	WinNT
#	Creation time:	15. 06. 2019 21:21

#	Modifying user name:	WinNT
#	Modification time:	15. 06. 2019 21:21

#	Program:	/corina/corina34_cracker 3.40 0067  02.08.2006

@<TRIPOS>MOLECULE
ASD09116463
  71   77    0    0    0
SMALL
NO_CHARGES


@<TRIPOS>ATOM
   1 N1            -0.1195     2.5207     0.7696 N.2     
   2 N2            -0.2897     1.1832     1.1620 N.pl3   
   3 C3             1.1693     2.7633     0.7857 C.2     
   4 N4             1.8169     1.6556     1.1655 N.2     
   5 C5             0.9502     0.6928     1.3963 C.2     
   6 N6             1.2523    -0.5922     1.8052 N.pl3   
   7 C7            -1.4982     0.4954     1.2860 C.ar    
   8 N8             1.7685     3.9802     0.4596 N.pl3   
   9 C9             3.1614     4.0811     0.4060 C.ar    
  10 C10            3.9363     2.9894     0.0170 C.ar    
  11 C11            3.7961     5.2728     0.7340 C.ar    
  12 N12            5.1092     5.3747     0.6861 N.ar    
  13 C13            5.8688     4.3540     0.3261 C.ar    
  14 C14            5.3115     3.1499    -0.0181 C.ar    
  15 N15           -1.5235    -0.8244     1.1760 N.ar    
  16 N16           -2.6102    -1.5043     1.2725 N.ar    
  17 C17           -3.7776    -0.9194     1.4881 C.ar    
  18 C18           -3.8451     0.4686     1.6389 C.ar    
  19 C19           -2.6802     1.1986     1.5318 C.ar    
  20 C20           -5.0384    -1.6948     1.5456 C.ar    
  21 C21           -6.1282    -1.2680     0.7851 C.ar    
  22 C22           -5.9779    -0.0701    -0.1120 C.3     
  23 C23           -6.0185     1.2310     0.6849 C.3     
  24 C24           -5.1619     1.1214     1.9435 C.3     
  25 C25           -5.1481    -2.8283     2.3435 C.ar    
  26 C26           -6.3451    -3.5163     2.3930 C.ar    
  27 C27           -7.4289    -3.0781     1.6540 C.ar    
  28 C28           -7.3212    -1.9551     0.8519 C.ar    
  29 C29            7.3743     4.5271     0.2933 C.3     
  30 C30            7.9807     3.7180     1.4418 C.3     
  31 C31            8.2104     2.2773     1.0301 C.3     
  32 C32            6.9410     1.4804     0.8025 C.3     
  33 C33            6.1911     1.9915    -0.4369 C.3     
  34 N34            8.9961     1.6128     2.0784 N.3     
  35 C35            9.3853     0.2522     1.6646 C.3     
  36 C36           10.9242     0.1718     1.7473 C.3     
  37 C37           11.2803     1.3058     2.7442 C.3     
  38 C38           10.2218     2.3793     2.3882 C.3     
  39 H39            2.1762    -0.8515     1.9470 H       
  40 H40            0.5404    -1.2349     1.9504 H       
  41 H41            1.2183     4.7563     0.2700 H       
  42 H42            3.4786     2.0478    -0.2484 H       
  43 H43            3.2057     6.1267     1.0318 H       
  44 H44           -2.6827     2.2745     1.6264 H       
  45 H45           -5.0257    -0.1361    -0.6385 H       
  46 H46           -6.7879    -0.0669    -0.8414 H       
  47 H47           -5.6418     2.0439     0.0641 H       
  48 H48           -7.0486     1.4454     0.9695 H       
  49 H49           -5.6927     0.5277     2.6877 H       
  50 H50           -4.9832     2.1195     2.3434 H       
  51 H51           -4.3018    -3.1693     2.9212 H       
  52 H52           -6.4346    -4.3984     3.0098 H       
  53 H53           -8.3646    -3.6151     1.7029 H       
  54 H54           -8.1718    -1.6175     0.2783 H       
  55 H55            7.7642     4.1628    -0.6572 H       
  56 H56            7.6246     5.5809     0.4155 H       
  57 H57            8.9326     4.1640     1.7302 H       
  58 H58            7.3020     3.7427     2.2944 H       
  59 H59            8.7933     2.2697     0.1090 H       
  60 H60            7.1977     0.4309     0.6581 H       
  61 H61            6.2972     1.5742     1.6770 H       
  62 H62            5.5735     1.1923    -0.8469 H       
  63 H63            6.9079     2.3261    -1.1868 H       
  64 H64            8.9391    -0.4815     2.3359 H       
  65 H65            9.0588     0.0682     0.6410 H       
  66 H66           11.2392    -0.7965     2.1364 H       
  67 H67           11.3729     0.3609     0.7721 H       
  68 H68           11.1648     0.9703     3.7748 H       
  69 H69           12.2892     1.6786     2.5674 H       
  70 H70           10.5408     2.9528     1.5179 H       
  71 H71           10.0513     3.0406     3.2377 H       
@<TRIPOS>BOND
   1    1    2 1
   2    1    3 2
   3    2    7 1
   4    2    5 1
   5    3    4 1
   6    3    8 1
   7    4    5 2
   8    5    6 1
   9    6   39 1
  10    6   40 1
  11    7   15 ar
  12    7   19 ar
  13    8    9 1
  14    8   41 1
  15    9   10 ar
  16    9   11 ar
  17   10   14 ar
  18   10   42 1
  19   11   12 ar
  20   11   43 1
  21   12   13 ar
  22   13   14 ar
  23   13   29 1
  24   14   33 1
  25   15   16 ar
  26   16   17 ar
  27   17   18 ar
  28   17   20 1
  29   18   19 ar
  30   18   24 1
  31   19   44 1
  32   20   21 ar
  33   20   25 ar
  34   21   22 1
  35   21   28 ar
  36   22   23 1
  37   22   45 1
  38   22   46 1
  39   23   24 1
  40   23   47 1
  41   23   48 1
  42   24   49 1
  43   24   50 1
  44   25   26 ar
  45   25   51 1
  46   26   27 ar
  47   26   52 1
  48   27   28 ar
  49   27   53 1
  50   28   54 1
  51   29   30 1
  52   29   55 1
  53   29   56 1
  54   30   31 1
  55   30   57 1
  56   30   58 1
  57   31   32 1
  58   31   34 1
  59   31   59 1
  60   32   33 1
  61   32   60 1
  62   32   61 1
  63   33   62 1
  64   33   63 1
  65   34   35 1
  66   34   38 1
  67   35   36 1
  68   35   64 1
  69   35   65 1
  70   36   37 1
  71   36   66 1
  72   36   67 1
  73   37   38 1
  74   37   68 1
  75   37   69 1
  76   38   70 1
  77   38   71 1

#	End of record

