#	Name: ASD02039344
#	Creating user name:	WinNT
#	Creation time:	15. 06. 2019 20:18

#	Modifying user name:	WinNT
#	Modification time:	15. 06. 2019 20:18

#	Program:	/corina/corina34_cracker 3.40 0067  02.08.2006

@<TRIPOS>MOLECULE
ASD02039344
  47   49    0    0    0
SMALL
NO_CHARGES


@<TRIPOS>ATOM
   1 C1            -0.0875     1.3443     0.4754 C.ar    
   2 C2             0.1979    -0.0130     0.5145 C.ar    
   3 C3            -0.8408    -0.9225     0.5925 C.ar    
   4 C4            -2.4084     0.7720     0.6062 C.ar    
   5 C5            -1.4124     1.7425     0.5220 C.ar    
   6 C6            -3.8326     1.1823     0.6570 C.ar    
   7 C7             1.0204     2.3623     0.3903 C.3     
   8 N8             1.4063     2.5482    -1.0107 N.am    
   9 C9             0.6534     3.4733    -1.8613 C.3     
  10 C10            2.4539     1.8681    -1.5170 C.2     
  11 C11            3.1415     0.8563    -0.6960 C.2     
  12 C12            4.1350     0.0193    -1.1125 C.2     
  13 N13            2.9060     0.5911     0.6144 N.2     
  14 C14            3.7027    -0.3632     1.0005 C.2     
  15 N15            4.4797    -0.7419    -0.0474 N.pl3   
  16 O16            2.8316     2.0895    -2.6517 O.2     
  17 C17            5.5060    -1.7872    -0.0286 C.3     
  18 C18           -4.1695     2.5325     0.7339 C.ar    
  19 N19           -2.0937    -0.5169     0.6300 N.ar    
  20 C20            1.5556     4.6396    -2.2697 C.3     
  21 C21            0.1723     2.7379    -3.1137 C.3     
  22 C22           -4.8412     0.2183     0.6222 C.ar    
  23 C23           -6.1672     0.6082     0.6700 C.ar    
  24 C24           -6.4928     1.9492     0.7520 C.ar    
  25 C25           -5.4962     2.9087     0.7810 C.ar    
  26 F26           -4.5231    -1.0923     0.5416 F       
  27 H27            1.2216    -0.3559     0.4840 H       
  28 H28           -0.6220    -1.9797     0.6228 H       
  29 H29           -1.6699     2.7912     0.5027 H       
  30 H30            0.6744     3.3109     0.8008 H       
  31 H31            1.8805     2.0117     0.9607 H       
  32 H32           -0.2067     3.8547    -1.3109 H       
  33 H33            4.5641    -0.0273    -2.1025 H       
  34 H34            3.7418    -0.7838     1.9945 H       
  35 H35            5.0556    -2.7435    -0.2943 H       
  36 H36            6.2879    -1.5417    -0.7473 H       
  37 H37            5.9383    -1.8540     0.9698 H       
  38 H38           -3.3934     3.2831     0.7570 H       
  39 H39            2.3445     4.2755    -2.9279 H       
  40 H40            0.9638     5.3908    -2.7927 H       
  41 H41            2.0012     5.0833    -1.3793 H       
  42 H42           -0.3786     1.8441    -2.8210 H       
  43 H43           -0.4791     3.3931    -3.6920 H       
  44 H44            1.0318     2.4526    -3.7202 H       
  45 H45           -6.9494    -0.1359     0.6429 H       
  46 H46           -7.5296     2.2495     0.7888 H       
  47 H47           -5.7574     3.9547     0.8455 H       
@<TRIPOS>BOND
   1    1    2 ar
   2    1    7 1
   3    1    5 ar
   4    2    3 ar
   5    2   27 1
   6    3   19 ar
   7    3   28 1
   8    4    5 ar
   9    4    6 1
  10    4   19 ar
  11    5   29 1
  12    6   18 ar
  13    6   22 ar
  14    7    8 1
  15    7   30 1
  16    7   31 1
  17    8    9 1
  18    8   10 am
  19    9   21 1
  20    9   20 1
  21    9   32 1
  22   10   11 1
  23   10   16 2
  24   11   12 2
  25   11   13 1
  26   12   15 1
  27   12   33 1
  28   13   14 2
  29   14   15 1
  30   14   34 1
  31   15   17 1
  32   17   35 1
  33   17   36 1
  34   17   37 1
  35   18   25 ar
  36   18   38 1
  37   20   39 1
  38   20   40 1
  39   20   41 1
  40   21   42 1
  41   21   43 1
  42   21   44 1
  43   22   23 ar
  44   22   26 1
  45   23   24 ar
  46   23   45 1
  47   24   25 ar
  48   24   46 1
  49   25   47 1

#	End of record

