#	Name: ASD03930007
#	Creating user name:	WinNT
#	Creation time:	15. 06. 2019 20:47

#	Modifying user name:	WinNT
#	Modification time:	15. 06. 2019 20:47

#	Program:	/corina/corina34_cracker 3.40 0067  02.08.2006

@<TRIPOS>MOLECULE
ASD03930007
  27   29    0    0    0
SMALL
NO_CHARGES


@<TRIPOS>ATOM
   1 C1            -0.0164     1.3554     0.0095 C.ar    
   2 C2             0.0021    -0.0041     0.0020 C.ar    
   3 C3             1.2067    -0.6967     0.0005 C.ar    
   4 C4             2.4117    -0.0458     0.0054 C.ar    
   5 C5             2.4306     1.3561    -0.0185 C.ar    
   6 C6             1.1973     2.0644     0.0017 C.ar    
   7 C7             3.6458    -0.9054     0.0599 C.3     
   8 N8             4.7700    -0.2725    -0.6408 N.am    
   9 S9             5.1701     1.2716    -0.1494 S.o2    
  10 C10            3.6159     2.1123    -0.0822 C.ar    
  11 C11            3.5815     3.4696    -0.0889 C.ar    
  12 C12            2.3681     4.1555    -0.0389 C.ar    
  13 C13            1.1950     3.4694     0.0074 C.ar    
  14 O14            5.6436     1.1706     1.1866 O.2     
  15 O15            5.9140     1.8619    -1.2065 O.2     
  16 C16            5.4992    -0.9574    -1.7110 C.3     
  17 Br17           5.2008     4.4432    -0.1666 Br      
  18 H18           -0.9567     1.8866     0.0169 H       
  19 H19           -0.9291    -0.5512    -0.0025 H       
  20 H20            1.1923    -1.7766    -0.0042 H       
  21 H21            3.9211    -1.0684     1.1018 H       
  22 H22            3.4313    -1.8673    -0.4059 H       
  23 H23            2.3602     5.2355    -0.0369 H       
  24 H24            0.2587     4.0061     0.0479 H       
  25 H25            5.0288    -0.7377    -2.6694 H       
  26 H26            6.5327    -0.6114    -1.7257 H       
  27 H27            5.4785    -2.0328    -1.5343 H       
@<TRIPOS>BOND
   1    1    2 ar
   2    1    6 ar
   3    1   18 1
   4    2    3 ar
   5    2   19 1
   6    3    4 ar
   7    3   20 1
   8    4    5 ar
   9    4    7 1
  10    5    6 ar
  11    5   10 ar
  12    6   13 ar
  13    7    8 1
  14    7   21 1
  15    7   22 1
  16    8    9 am
  17    8   16 1
  18    9   10 1
  19    9   14 2
  20    9   15 2
  21   10   11 ar
  22   11   12 ar
  23   11   17 1
  24   12   13 ar
  25   12   23 1
  26   13   24 1
  27   16   25 1
  28   16   26 1
  29   16   27 1

#	End of record

