#	Name: ASD00431297
#	Creating user name:	WinNT
#	Creation time:	15. 06. 2019 18:35

#	Modifying user name:	WinNT
#	Modification time:	15. 06. 2019 18:35

#	Program:	/corina/corina34_cracker 3.40 0067  02.08.2006

@<TRIPOS>MOLECULE
ASD00431297
  42   44    0    0    0
SMALL
NO_CHARGES


@<TRIPOS>ATOM
   1 C1             5.0561     2.9333   -11.5148 C.3     
   2 C2             4.0930     4.0781   -11.8352 C.3     
   3 C3             5.9541     3.3369   -10.3738 C.2     
   4 C4             7.1751     3.8645   -10.5063 C.2     
   5 C5             7.8170     4.1576    -9.3218 C.2     
   6 C6             7.1088     3.8645    -8.2095 C.2     
   7 S7             5.5500     3.1913    -8.6686 S.3     
   8 S8             6.6619     3.7064    -5.3604 S.3     
   9 C9             7.5678     4.0808    -6.8279 C.2     
  10 N10            8.7179     4.5834    -6.4692 N.2     
  11 N11            8.9464     4.6975    -5.2343 N.2     
  12 C12            8.0206     4.3067    -4.4076 C.2     
  13 O13            8.0880     4.3521    -3.0546 O.3     
  14 C14            9.2717     4.7044    -2.4859 C.ar    
  15 C15           10.4034     4.8520    -3.2746 C.ar    
  16 C16           11.6058     5.2099    -2.6968 C.ar    
  17 C17           11.6819     5.4213    -1.3281 C.ar    
  18 C18           10.5504     5.2737    -0.5394 C.ar    
  19 C19            9.3465     4.9219    -1.1178 C.ar    
  20 O20           12.8659     5.7727    -0.7593 O.3     
  21 C21           14.0157     5.7826    -1.6078 C.3     
  22 C22           14.2308     7.1937    -2.1587 C.3     
  23 C23           15.2459     5.3556    -0.8046 C.3     
  24 O24            4.3096     1.7720   -11.1456 O.3     
  25 H25            5.6621     2.7116   -12.3932 H       
  26 H26            4.6623     4.9639   -12.1168 H       
  27 H27            3.4434     3.7862   -12.6605 H       
  28 H28            3.4870     4.2998   -10.9568 H       
  29 H29            7.6259     4.0475   -11.4704 H       
  30 H30            8.8073     4.5869    -9.2862 H       
  31 H31           10.3444     4.6867    -4.3402 H       
  32 H32           12.4869     5.3248    -3.3108 H       
  33 H33           10.6098     5.4384     0.5263 H       
  34 H34            8.4645     4.8117    -0.5044 H       
  35 H35           13.8629     5.0891    -2.4347 H       
  36 H36           14.3836     7.8872    -1.3317 H       
  37 H37           15.1078     7.2013    -2.8059 H       
  38 H38           13.3544     7.4979    -2.7308 H       
  39 H39           15.0927     4.3503    -0.4122 H       
  40 H40           16.1229     5.3632    -1.4519 H       
  41 H41           15.3987     6.0491     0.0223 H       
  42 H42            3.7090     1.4553   -11.8340 H       
@<TRIPOS>BOND
   1    1    2 1
   2    1    3 1
   3    1   24 1
   4    1   25 1
   5    2   26 1
   6    2   27 1
   7    2   28 1
   8    3    4 2
   9    3    7 1
  10    4    5 1
  11    4   29 1
  12    5    6 2
  13    5   30 1
  14    6    7 1
  15    6    9 1
  16    8    9 1
  17    8   12 1
  18    9   10 2
  19   10   11 1
  20   11   12 2
  21   12   13 1
  22   13   14 1
  23   14   15 ar
  24   14   19 ar
  25   15   16 ar
  26   15   31 1
  27   16   17 ar
  28   16   32 1
  29   17   18 ar
  30   17   20 1
  31   18   19 ar
  32   18   33 1
  33   19   34 1
  34   20   21 1
  35   21   22 1
  36   21   23 1
  37   21   35 1
  38   22   36 1
  39   22   37 1
  40   22   38 1
  41   23   39 1
  42   23   40 1
  43   23   41 1
  44   24   42 1

#	End of record

