#	Name: ASD08151049
#	Creating user name:	WinNT
#	Creation time:	15. 06. 2019 21:17

#	Modifying user name:	WinNT
#	Modification time:	15. 06. 2019 21:17

#	Program:	/corina/corina34_cracker 3.40 0067  02.08.2006

@<TRIPOS>MOLECULE
ASD08151049
  47   49    0    0    0
SMALL
NO_CHARGES


@<TRIPOS>ATOM
   1 N1            -0.0776     0.7491    -0.5581 N.ar    
   2 C2            -0.0338    -0.5555    -0.6781 C.ar    
   3 C3             1.1760    -1.2435    -0.7448 C.ar    
   4 C4             2.3548    -0.5557    -0.6854 C.ar    
   5 C5             2.3021     0.8449    -0.5571 C.ar    
   6 C6             3.4801     1.6135    -0.4907 C.ar    
   7 C7             3.4089     2.9635    -0.3674 C.ar    
   8 C8             2.1647     3.6170    -0.3034 C.ar    
   9 C9             0.9790     2.8859    -0.3658 C.ar    
  10 C10            1.0386     1.4792    -0.4947 C.ar    
  11 C11            2.1141     5.0830    -0.1691 C.2     
  12 O12            1.1529     5.6129     0.3548 O.2     
  13 N13            3.1331     5.8371    -0.6267 N.am    
  14 C14            3.0462     7.2984    -0.5693 C.3     
  15 N15           -0.2439     3.5307    -0.3021 N.3     
  16 C16           -0.3814     4.5119    -1.3941 C.3     
  17 C17           -1.6560     4.1435    -2.1820 C.3     
  18 C18           -2.4766     3.3205    -1.1543 C.3     
  19 C19           -1.3583     2.5636    -0.3952 C.3     
  20 C20            0.8385     4.4404    -2.3147 C.3     
  21 O21            0.9110     3.1430    -2.9094 O.3     
  22 C22            1.9492     3.0066    -3.8819 C.3     
  23 O23            4.2876     5.2171    -1.1630 O.3     
  24 C24            4.2851     5.1180    -2.5886 C.3     
  25 Cl25           5.0285     0.8321    -0.5664 Cl      
  26 H26           -0.9587    -1.1110    -0.7261 H       
  27 H27            1.1817    -2.3190    -0.8429 H       
  28 H28            3.3017    -1.0728    -0.7353 H       
  29 H29            4.3189     3.5432    -0.3175 H       
  30 H30            3.4526     7.6496     0.3792 H       
  31 H31            3.6181     7.7290    -1.3913 H       
  32 H32            2.0033     7.6040    -0.6531 H       
  33 H33           -0.4782     5.5158    -0.9805 H       
  34 H34           -2.1988     5.0410    -2.4784 H       
  35 H35           -1.4088     3.5361    -3.0527 H       
  36 H36           -3.0302     3.9760    -0.4819 H       
  37 H37           -3.1470     2.6241    -1.6578 H       
  38 H38           -1.0493     1.6814    -0.9557 H       
  39 H39           -1.6998     2.2812     0.6007 H       
  40 H40            0.7481     5.1941    -3.0969 H       
  41 H41            1.7428     4.6252    -1.7348 H       
  42 H42            1.8498     3.7913    -4.6320 H       
  43 H43            2.9192     3.0927    -3.3924 H       
  44 H44            1.8704     2.0318    -4.3632 H       
  45 H45            3.4255     4.5302    -2.9104 H       
  46 H46            4.2255     6.1163    -3.0220 H       
  47 H47            5.2025     4.6319    -2.9206 H       
@<TRIPOS>BOND
   1    1    2 ar
   2    1   10 ar
   3    2    3 ar
   4    2   26 1
   5    3    4 ar
   6    3   27 1
   7    4    5 ar
   8    4   28 1
   9    5    6 ar
  10    5   10 ar
  11    6    7 ar
  12    6   25 1
  13    7    8 ar
  14    7   29 1
  15    8    9 ar
  16    8   11 1
  17    9   10 ar
  18    9   15 1
  19   11   12 2
  20   11   13 am
  21   13   14 1
  22   13   23 1
  23   14   30 1
  24   14   31 1
  25   14   32 1
  26   15   16 1
  27   15   19 1
  28   16   17 1
  29   16   20 1
  30   16   33 1
  31   17   18 1
  32   17   34 1
  33   17   35 1
  34   18   19 1
  35   18   36 1
  36   18   37 1
  37   19   38 1
  38   19   39 1
  39   20   21 1
  40   20   40 1
  41   20   41 1
  42   21   22 1
  43   22   42 1
  44   22   43 1
  45   22   44 1
  46   23   24 1
  47   24   45 1
  48   24   46 1
  49   24   47 1

#	End of record

