#	Name: ASD04840038
#	Creating user name:	WinNT
#	Creation time:	15. 06. 2019 20:52

#	Modifying user name:	WinNT
#	Modification time:	15. 06. 2019 20:52

#	Program:	/corina/corina34_cracker 3.40 0067  02.08.2006

@<TRIPOS>MOLECULE
ASD04840038
  45   47    0    0    0
SMALL
NO_CHARGES


@<TRIPOS>ATOM
   1 C1             0.6230     1.4241     0.0359 C.3     
   2 C2             0.3310    -0.0542     0.0216 C.ar    
   3 C3             0.0438    -0.7179     1.2079 C.ar    
   4 C4            -0.2248    -2.0805     1.1902 C.ar    
   5 C5            -0.2055    -2.7712    -0.0058 C.ar    
   6 C6             0.0812    -2.1077    -1.1845 C.ar    
   7 C7             0.3430    -0.7496    -1.1713 C.ar    
   8 N8             0.0255    -0.0160     2.4165 N.pl3   
   9 C9            -2.0168    -2.1472     4.4254 C.ar    
  10 N10           -1.9726    -1.5967     5.6166 N.ar    
  11 C11           -1.2636    -0.4825     5.8365 C.ar    
  12 C12           -0.5623     0.0973     4.7756 C.ar    
  13 C13           -0.6444    -0.5377     3.5100 C.ar    
  14 N14           -1.3721    -1.6385     3.3911 N.ar    
  15 C15            0.1500     1.2933     5.1841 C.2     
  16 C16            0.0110     1.6126     6.4574 C.2     
  17 S17           -1.0189     0.4669     7.2950 S.3     
  18 Br18           0.8199     3.1141     7.2742 Br      
  19 P19            2.4128     1.6879     0.2605 P.3     
  20 O20            3.2049     1.1096    -1.0163 O.3     
  21 O21            2.7088     3.2636     0.4072 O.3     
  22 O22            2.8656     0.9851     1.4818 O.2     
  23 C23            4.6312     1.0718    -1.0958 C.3     
  24 C24            5.0514     0.4653    -2.4361 C.3     
  25 C25            4.0057     3.7880     0.6992 C.3     
  26 C26            3.9346     5.3148     0.7687 C.3     
  27 H27            0.3064     1.8662    -0.9088 H       
  28 H28            0.0808     1.8937     0.8566 H       
  29 H29           -0.4480    -2.5994     2.1107 H       
  30 H30           -0.4142    -3.8307    -0.0202 H       
  31 H31            0.0960    -2.6502    -2.1182 H       
  32 H32            0.5619    -0.2335    -2.0944 H       
  33 H33            0.4822     0.8367     2.4890 H       
  34 H34           -2.5959    -3.0483     4.2878 H       
  35 H35            0.7479     1.8769     4.4997 H       
  36 H36            5.0265     2.0844    -1.0153 H       
  37 H37            5.0244     0.4626    -0.2820 H       
  38 H38            4.6562    -0.5473    -2.5165 H       
  39 H39            4.6582     1.0746    -3.2498 H       
  40 H40            6.1394     0.4365    -2.4967 H       
  41 H41            4.3488     3.3963     1.6568 H       
  42 H42            4.7023     3.4920    -0.0851 H       
  43 H43            3.5915     5.7065    -0.1888 H       
  44 H44            3.2380     5.6107     1.5530 H       
  45 H45            4.9238     5.7147     0.9914 H       
@<TRIPOS>BOND
   1    1    2 1
   2    1   19 1
   3    1   27 1
   4    1   28 1
   5    2    3 ar
   6    2    7 ar
   7    3    4 ar
   8    3    8 1
   9    4    5 ar
  10    4   29 1
  11    5    6 ar
  12    5   30 1
  13    6    7 ar
  14    6   31 1
  15    7   32 1
  16    8   13 1
  17    8   33 1
  18    9   10 ar
  19    9   14 ar
  20    9   34 1
  21   10   11 ar
  22   11   12 ar
  23   11   17 1
  24   12   13 ar
  25   12   15 1
  26   13   14 ar
  27   15   16 2
  28   15   35 1
  29   16   17 1
  30   16   18 1
  31   19   20 1
  32   19   21 1
  33   19   22 2
  34   20   23 1
  35   21   25 1
  36   23   24 1
  37   23   36 1
  38   23   37 1
  39   24   38 1
  40   24   39 1
  41   24   40 1
  42   25   26 1
  43   25   41 1
  44   25   42 1
  45   26   43 1
  46   26   44 1
  47   26   45 1

#	End of record

