#	Name: ASD01913216
#	Creating user name:	WinNT
#	Creation time:	15. 06. 2019 20:01

#	Modifying user name:	WinNT
#	Modification time:	15. 06. 2019 20:01

#	Program:	/corina/corina34_cracker 3.40 0067  02.08.2006

@<TRIPOS>MOLECULE
ASD01913216
  44   47    0    0    0
SMALL
NO_CHARGES


@<TRIPOS>ATOM
   1 C1            -0.0629     1.2727     0.7501 C.ar    
   2 C2            -0.0564    -0.0999     0.6013 C.ar    
   3 C3             1.1358    -0.7944     0.7381 C.ar    
   4 C4             2.2886    -0.0782     1.0221 C.ar    
   5 C5             2.2085     1.2946     1.1579 C.ar    
   6 N6             1.0574     1.9208     1.0205 N.ar    
   7 N7            -2.3262     0.6119     0.2849 N.am    
   8 C8            -1.4737     1.7728     0.5598 C.3     
   9 C9            -1.4560    -0.5685     0.3008 C.3     
  10 C10           -3.6544     0.6273     0.0566 C.2     
  11 O11           -4.2295    -0.3974    -0.2554 O.2     
  12 C12           -4.4110     1.8885     0.1855 C.ar    
  13 C13           -5.8026     1.8784     0.1007 C.ar    
  14 C14           -6.5111     3.0717     0.2230 C.ar    
  15 C15           -5.8180     4.2757     0.4308 C.ar    
  16 C16           -4.4331     4.2736     0.5135 C.ar    
  17 C17           -3.7323     3.0926     0.3983 C.ar    
  18 C18           -7.9405     3.0709     0.1368 C.1     
  19 C19           -9.1124     3.0703     0.0661 C.1     
  20 C20          -10.5418     3.0695    -0.0202 C.ar    
  21 C21          -11.2451     4.2710     0.1036 C.ar    
  22 C22          -12.6250     4.2529     0.0175 C.ar    
  23 C23          -13.2611     3.0359    -0.1896 C.ar    
  24 C24          -12.5045     1.8841    -0.3032 C.ar    
  25 N25          -11.1903     1.9265    -0.2229 N.ar    
  26 O26           -6.5025     5.4402     0.5501 O.3     
  27 C27           -5.7335     6.6262     0.7600 C.3     
  28 H28            1.1657    -1.8682     0.6265 H       
  29 H29            3.2351    -0.5858     1.1359 H       
  30 H30            3.1007     1.8614     1.3794 H       
  31 H31           -1.8133     2.2740     1.4662 H       
  32 H32           -1.5098     2.4649    -0.2815 H       
  33 H33           -1.4792    -1.0653    -0.6691 H       
  34 H34           -1.7903    -1.2562     1.0776 H       
  35 H35           -6.3293     0.9493    -0.0595 H       
  36 H36           -3.9023     5.2005     0.6729 H       
  37 H37           -2.6546     3.0975     0.4684 H       
  38 H38          -10.7184     5.2001     0.2645 H       
  39 H39          -13.1956     5.1652     0.1096 H       
  40 H40          -14.3377     2.9894    -0.2609 H       
  41 H41          -12.9977     0.9369    -0.4639 H       
  42 H42           -6.4020     7.4837     0.8379 H       
  43 H43           -5.1590     6.5285     1.6811 H       
  44 H44           -5.0530     6.7712    -0.0790 H       
@<TRIPOS>BOND
   1    1    2 ar
   2    1    6 ar
   3    1    8 1
   4    2    3 ar
   5    2    9 1
   6    3    4 ar
   7    3   28 1
   8    4    5 ar
   9    4   29 1
  10    5    6 ar
  11    5   30 1
  12    7    8 1
  13    7    9 1
  14    7   10 am
  15    8   31 1
  16    8   32 1
  17    9   33 1
  18    9   34 1
  19   10   11 2
  20   10   12 1
  21   12   13 ar
  22   12   17 ar
  23   13   14 ar
  24   13   35 1
  25   14   15 ar
  26   14   18 1
  27   15   16 ar
  28   15   26 1
  29   16   17 ar
  30   16   36 1
  31   17   37 1
  32   18   19 3
  33   19   20 1
  34   20   21 ar
  35   20   25 ar
  36   21   22 ar
  37   21   38 1
  38   22   23 ar
  39   22   39 1
  40   23   24 ar
  41   23   40 1
  42   24   25 ar
  43   24   41 1
  44   26   27 1
  45   27   42 1
  46   27   43 1
  47   27   44 1

#	End of record

