#	Name: ASD05430427
#	Creating user name:	WinNT
#	Creation time:	15. 06. 2019 21:00

#	Modifying user name:	WinNT
#	Modification time:	15. 06. 2019 21:00

#	Program:	/corina/corina34_cracker 3.40 0067  02.08.2006

@<TRIPOS>MOLECULE
ASD05430427
  59   63    0    0    0
SMALL
NO_CHARGES


@<TRIPOS>ATOM
   1 C1            -0.0168     1.3903     0.0097 C.ar    
   2 C2             0.0021    -0.0041     0.0020 C.ar    
   3 C3            -1.1893    -0.7181     0.0095 C.ar    
   4 C4            -2.3954    -0.0522     0.0241 C.ar    
   5 C5            -2.4221     1.3461     0.0319 C.ar    
   6 C6            -1.2229     2.0649     0.0306 C.ar    
   7 C7            -4.8632     1.3659     0.0543 C.2     
   8 C8            -3.7098     2.0594     0.0475 C.2     
   9 O9             1.1512     2.0860     0.0023 O.3     
  10 C10            1.6010    -1.7068     0.8216 C.2     
  11 N11            1.2260    -0.6865    -0.0138 N.pl3   
  12 C12            2.8470    -2.0685     0.4606 C.2     
  13 N13            3.2271    -1.2938    -0.5662 N.2     
  14 C14            2.2648    -0.4620    -0.8596 C.2     
  15 C15            3.6719    -3.1555     1.1002 C.3     
  16 C16           -7.3429    -0.0248    -0.3793 C.3     
  17 N17           -7.3493     1.3600     0.0770 N.pl3   
  18 C18           -6.1474     2.0773     0.0699 C.2     
  19 C19           -8.5384     2.0837     0.4952 C.3     
  20 C20           -8.5607     3.4356    -0.2214 C.3     
  21 O21           -7.3604     4.1367     0.1234 O.3     
  22 N22           -6.1747     3.3763     0.0775 N.2     
  23 C23           -9.8458     1.3463     0.3761 C.3     
  24 N24           -9.7524     0.1887    -0.5181 N.3     
  25 C25           -8.6737    -0.7030    -0.0505 C.3     
  26 C26           -8.3618     2.3847     1.9613 C.ar    
  27 C27           -9.3441     3.0737     2.6481 C.ar    
  28 C28           -7.2204     1.9666     2.6197 C.ar    
  29 C29           -7.0578     2.2412     3.9643 C.ar    
  30 C30           -8.0385     2.9358     4.6519 C.ar    
  31 C31           -9.1835     3.3499     3.9926 C.ar    
  32 F32           -7.8807     3.2049     5.9664 F       
  33 C33            1.0570     3.5119     0.0108 C.3     
  34 H34           -1.1702    -1.7980     0.0035 H       
  35 H35           -3.3202    -0.6100     0.0292 H       
  36 H36           -1.2390     3.1448     0.0369 H       
  37 H37           -4.8440     0.2861     0.0483 H       
  38 H38           -3.7289     3.1393     0.0535 H       
  39 H39            1.0120    -2.1351     1.6191 H       
  40 H40            2.2905     0.2806    -1.6434 H       
  41 H41            3.4808    -4.1019     0.5942 H       
  42 H42            4.7296    -2.9058     1.0165 H       
  43 H43            3.4018    -3.2450     2.1524 H       
  44 H44           -7.1833    -0.0481    -1.4573 H       
  45 H45           -6.5330    -0.5627     0.1134 H       
  46 H46           -8.6004     3.2808    -1.2996 H       
  47 H47           -9.4289     4.0099     0.1016 H       
  48 H48          -10.1503     1.0048     1.3654 H       
  49 H49          -10.6030     2.0296    -0.0084 H       
  50 H50          -10.6322    -0.3028    -0.5666 H       
  51 H51           -8.7374    -1.6622    -0.5643 H       
  52 H52           -8.7573    -0.8522     1.0260 H       
  53 H53          -10.2371     3.3965     2.1336 H       
  54 H54           -6.4556     1.4248     2.0831 H       
  55 H55           -6.1663     1.9139     4.4786 H       
  56 H56           -9.9490     3.8920     4.5279 H       
  57 H57            0.5119     3.8453    -0.8722 H       
  58 H58            0.5289     3.8358     0.9076 H       
  59 H59            2.0585     3.9422     0.0036 H       
@<TRIPOS>BOND
   1    1    2 ar
   2    1    9 1
   3    1    6 ar
   4    2    3 ar
   5    2   11 1
   6    3    4 ar
   7    3   34 1
   8    4    5 ar
   9    4   35 1
  10    5    6 ar
  11    5    8 1
  12    6   36 1
  13    7    8 2
  14    7   18 1
  15    7   37 1
  16    8   38 1
  17    9   33 1
  18   10   11 1
  19   10   12 2
  20   10   39 1
  21   11   14 1
  22   12   13 1
  23   12   15 1
  24   13   14 2
  25   14   40 1
  26   15   41 1
  27   15   42 1
  28   15   43 1
  29   16   17 1
  30   16   25 1
  31   16   44 1
  32   16   45 1
  33   17   18 1
  34   17   19 1
  35   18   22 2
  36   19   20 1
  37   19   23 1
  38   19   26 1
  39   20   21 1
  40   20   46 1
  41   20   47 1
  42   21   22 1
  43   23   24 1
  44   23   48 1
  45   23   49 1
  46   24   25 1
  47   24   50 1
  48   25   51 1
  49   25   52 1
  50   26   27 ar
  51   26   28 ar
  52   27   31 ar
  53   27   53 1
  54   28   29 ar
  55   28   54 1
  56   29   30 ar
  57   29   55 1
  58   30   31 ar
  59   30   32 1
  60   31   56 1
  61   33   57 1
  62   33   58 1
  63   33   59 1

#	End of record

