#	Name: ASD01670040
#	Creating user name:	WinNT
#	Creation time:	15. 06. 2019 19:22

#	Modifying user name:	WinNT
#	Modification time:	15. 06. 2019 19:22

#	Program:	/corina/corina34_cracker 3.40 0067  02.08.2006

@<TRIPOS>MOLECULE
ASD01670040
  59   61    0    0    0
SMALL
NO_CHARGES


@<TRIPOS>ATOM
   1 C1             0.1379     2.3518     0.3502 C.ar    
   2 C2             0.0203     0.9849     0.1806 C.ar    
   3 C3             1.3892     2.9379     0.3925 C.ar    
   4 C4             1.1540     0.2042     0.0533 C.ar    
   5 C5             2.5228     2.1572     0.2652 C.ar    
   6 C6             7.1618    -1.7435     3.4215 C.ar    
   7 C7             8.0223    -2.8229     3.5352 C.ar    
   8 C8             6.8122    -1.7659     5.7996 C.ar    
   9 C9             2.4052     0.7904     0.0951 C.ar    
  10 C10            6.5577    -1.2136     4.5405 C.ar    
  11 C11            8.2851    -3.3816     4.7746 C.ar    
  12 C12            7.6821    -2.8572     5.9149 C.ar    
  13 C13            6.1685    -1.2019     6.9998 C.2     
  14 C14            4.1591     0.0304    -1.4549 C.2     
  15 C15            4.6731    -0.0121     2.1641 C.2     
  16 C16            9.2735    -4.2796     6.5639 C.3     
  17 C17            5.1388    -1.1323    -3.9973 C.3     
  18 C18            4.2283     1.1871    -4.1813 C.3     
  19 C19            2.8109    -0.7663    -4.8275 C.3     
  20 C20            6.6412     1.3693     2.5584 C.3     
  21 C21            5.6232    -0.0388     4.4077 C.3     
  22 C22            3.6411    -0.0609    -0.0426 C.3     
  23 C23            3.8840    -0.2681    -3.8575 C.3     
  24 N24            3.3805    -0.3568    -2.4846 N.am    
  25 N25            4.6686     0.4162     0.8862 N.am    
  26 N26            5.6184     0.4267     3.0186 N.am    
  27 O27            5.0531    -1.5641     7.3179 O.2     
  28 O28            6.8169    -0.2846     7.7440 O.3     
  29 O29            5.2765     0.4524    -1.6648 O.2     
  30 O30            3.8242    -0.7944     2.5461 O.2     
  31 O31            9.0796    -4.4285     5.1449 O.3     
  32 O32            8.0957    -3.5732     6.9971 O.3     
  33 H33           -0.7479     2.9623     0.4451 H       
  34 H34           -0.9572     0.5270     0.1479 H       
  35 H35            1.4810     4.0059     0.5247 H       
  36 H36            1.0621    -0.8638    -0.0785 H       
  37 H37            3.5003     2.6152     0.2976 H       
  38 H38            6.9668    -1.3121     2.4508 H       
  39 H39            8.4907    -3.2313     2.6519 H       
  40 H40            9.3340    -5.2550     7.0467 H       
  41 H41           10.1694    -3.6935     6.7687 H       
  42 H42            5.9033    -0.7774    -3.3063 H       
  43 H43            4.8935    -2.1690    -3.7666 H       
  44 H44            5.5134    -1.0663    -5.0188 H       
  45 H45            4.6030     1.2531    -5.2028 H       
  46 H46            3.3344     1.8028    -4.0817 H       
  47 H47            4.9929     1.5420    -3.4902 H       
  48 H48            2.5656    -1.8029    -4.5968 H       
  49 H49            1.9170    -0.1505    -4.7279 H       
  50 H50            3.1855    -0.7002    -5.8490 H       
  51 H51            6.2535     2.3860     2.6226 H       
  52 H52            7.5278     1.2782     3.1858 H       
  53 H53            6.9031     1.1449     1.5244 H       
  54 H54            4.6158    -0.3418     4.6928 H       
  55 H55            5.9584     0.7676     5.0600 H       
  56 H56            3.3958    -1.0976     0.1881 H       
  57 H57            2.4867    -0.6943    -2.3167 H       
  58 H58            5.3458     1.0402     0.5815 H       
  59 H59            6.3543     0.0563     8.5217 H       
@<TRIPOS>BOND
   1    1    2 ar
   2    1    3 ar
   3    1   33 1
   4    2    4 ar
   5    2   34 1
   6    3    5 ar
   7    3   35 1
   8    4    9 ar
   9    4   36 1
  10    5    9 ar
  11    5   37 1
  12    6    7 ar
  13    6   10 ar
  14    6   38 1
  15    7   11 ar
  16    7   39 1
  17    8   10 ar
  18    8   12 ar
  19    8   13 1
  20    9   22 1
  21   10   21 1
  22   11   12 ar
  23   11   31 1
  24   12   32 1
  25   13   27 2
  26   13   28 1
  27   14   22 1
  28   14   24 am
  29   14   29 2
  30   15   25 am
  31   15   26 am
  32   15   30 2
  33   16   31 1
  34   16   32 1
  35   16   40 1
  36   16   41 1
  37   17   23 1
  38   17   42 1
  39   17   43 1
  40   17   44 1
  41   18   23 1
  42   18   45 1
  43   18   46 1
  44   18   47 1
  45   19   23 1
  46   19   48 1
  47   19   49 1
  48   19   50 1
  49   20   26 1
  50   20   51 1
  51   20   52 1
  52   20   53 1
  53   21   26 1
  54   21   54 1
  55   21   55 1
  56   22   25 1
  57   22   56 1
  58   23   24 1
  59   24   57 1
  60   25   58 1
  61   28   59 1

#	End of record

