#	Name: ASD01814225
#	Creating user name:	WinNT
#	Creation time:	15. 06. 2019 19:31

#	Modifying user name:	WinNT
#	Modification time:	15. 06. 2019 19:31

#	Program:	/corina/corina34_cracker 3.40 0067  02.08.2006

@<TRIPOS>MOLECULE
ASD01814225
  38   41    0    0    0
SMALL
NO_CHARGES


@<TRIPOS>ATOM
   1 C1            -0.0167     1.3820     0.0096 C.ar    
   2 C2             0.0021    -0.0041     0.0020 C.ar    
   3 C3             1.1959    -0.6932    -0.0130 C.ar    
   4 C4             2.4016     0.0019    -0.0208 C.ar    
   5 C5             2.3831     1.4075    -0.0131 C.ar    
   6 C6             1.1665     2.0939     0.0022 C.ar    
   7 N7             3.6010    -0.6771    -0.0354 N.pl3   
   8 C8             4.7870    -0.0549    -0.0424 C.2     
   9 C9             4.8957     1.3208    -0.0361 C.2     
  10 C10            3.6667     2.1313    -0.0214 C.2     
  11 C11            6.2161     1.9660    -0.0437 C.2     
  12 O12            6.3092     3.3109    -0.0374 O.3     
  13 O13            7.2243     1.2870    -0.0558 O.2     
  14 O14            3.7090     3.3491    -0.0157 O.2     
  15 C15            3.5775    -2.1419    -0.0430 C.3     
  16 C16            3.5565    -2.6366    -1.4663 C.2     
  17 C17            4.6393    -2.9976    -2.1728 C.2     
  18 C18            4.1685    -3.4107    -3.4970 C.ar    
  19 C19            2.7704    -3.2568    -3.4779 C.ar    
  20 N20            2.4302    -2.7900    -2.2280 N.pl3   
  21 C21            4.8020    -3.8805    -4.6492 C.ar    
  22 C22            4.0593    -4.1887    -5.7538 C.ar    
  23 C23            2.6792    -4.0386    -5.7400 C.ar    
  24 C24            2.0340    -3.5763    -4.6142 C.ar    
  25 F25            1.1476     3.4448     0.0096 F       
  26 H26           -0.9604     1.9071     0.0169 H       
  27 H27           -0.9295    -0.5505     0.0083 H       
  28 H28            1.1956    -1.7731    -0.0185 H       
  29 H29            5.6884    -0.6497    -0.0531 H       
  30 H30            7.1990     3.6894    -0.0429 H       
  31 H31            4.4662    -2.5222     0.4608 H       
  32 H32            2.6865    -2.4937     0.4772 H       
  33 H33            5.6634    -2.9853    -1.8300 H       
  34 H34            1.5272    -2.5932    -1.9334 H       
  35 H35            5.8753    -3.9995    -4.6673 H       
  36 H36            4.5498    -4.5518    -6.6449 H       
  37 H37            2.1058    -4.2860    -6.6211 H       
  38 H38            0.9600    -3.4629    -4.6133 H       
@<TRIPOS>BOND
   1    1    2 ar
   2    1    6 ar
   3    1   26 1
   4    2    3 ar
   5    2   27 1
   6    3    4 ar
   7    3   28 1
   8    4    5 ar
   9    4    7 1
  10    5    6 ar
  11    5   10 1
  12    6   25 1
  13    7    8 1
  14    7   15 1
  15    8    9 2
  16    8   29 1
  17    9   10 1
  18    9   11 1
  19   10   14 2
  20   11   12 1
  21   11   13 2
  22   12   30 1
  23   15   16 1
  24   15   31 1
  25   15   32 1
  26   16   17 2
  27   16   20 1
  28   17   18 1
  29   17   33 1
  30   18   19 ar
  31   18   21 ar
  32   19   20 1
  33   19   24 ar
  34   20   34 1
  35   21   22 ar
  36   21   35 1
  37   22   23 ar
  38   22   36 1
  39   23   24 ar
  40   23   37 1
  41   24   38 1

#	End of record

