#	Name: ASD07930772
#	Creating user name:	WinNT
#	Creation time:	15. 06. 2019 21:13

#	Modifying user name:	WinNT
#	Modification time:	15. 06. 2019 21:13

#	Program:	/corina/corina34_cracker 3.40 0067  02.08.2006

@<TRIPOS>MOLECULE
ASD07930772
  47   49    0    0    0
SMALL
NO_CHARGES


@<TRIPOS>ATOM
   1 C1             1.8971    -1.4627     2.8293 C.3     
   2 N2            -0.7104    -0.2155     2.0835 N.2     
   3 N3            -1.1419    -2.2826     1.0825 N.pl3   
   4 C4            -0.9005    -2.8248    -0.2586 C.3     
   5 C5             0.4790    -3.4972    -0.2919 C.3     
   6 S6             1.7239    -2.2722     0.2218 S.o2    
   7 N7             1.0780    -1.6613     1.6311 N.am    
   8 C8            -0.2743    -1.3504     1.6139 C.2     
   9 C9            -0.9403    -1.6895    -1.2835 C.3     
  10 O10            2.9252    -2.9137     0.6277 O.2     
  11 O11            1.7426    -1.1671    -0.6713 O.2     
  12 C12           -1.9634    -3.8404    -0.5898 C.ar    
  13 C13           -2.1047    -4.9743     0.1926 C.ar    
  14 C14           -2.7996    -3.6369    -1.6698 C.ar    
  15 C15           -3.7795    -4.5731    -1.9743 C.ar    
  16 C16           -3.9159    -5.7119    -1.1916 C.ar    
  17 C17           -3.0806    -5.9088    -0.1090 C.ar    
  18 F18           -1.2886    -5.1691     1.2515 F       
  19 N19           -4.6275    -4.3688    -3.0670 N.pl3   
  20 C20           -5.6606    -5.3570    -3.3872 C.3     
  21 C21           -6.7801    -4.6869    -4.1415 C.2     
  22 C22           -8.0796    -4.9320    -3.9668 C.2     
  23 C23           -8.9263    -4.1930    -4.7750 C.2     
  24 C24           -8.3143    -3.3479    -5.6060 C.2     
  25 S25           -6.5733    -3.4567    -5.3814 S.3     
  26 C26           -5.0558    -6.4657    -4.2508 C.3     
  27 F27           -4.0166    -7.0877    -3.5506 F       
  28 F28           -6.0423    -7.4093    -4.5566 F       
  29 F29           -4.5554    -5.9138    -5.4350 F       
  30 H30            2.3238    -0.4598     2.8156 H       
  31 H31            1.2765    -1.5813     3.7175 H       
  32 H32            2.7005    -2.1991     2.8464 H       
  33 H33           -0.0861     0.4284     2.4531 H       
  34 H34           -1.9125    -2.5759     1.5936 H       
  35 H35            0.4917    -4.3439     0.3944 H       
  36 H36            0.6964    -3.8400    -1.3034 H       
  37 H37           -0.1697    -0.9566    -1.0440 H       
  38 H38           -0.7607    -2.0930    -2.2800 H       
  39 H39           -1.9187    -1.2099    -1.2566 H       
  40 H40           -2.6920    -2.7502    -2.2770 H       
  41 H41           -4.6770    -6.4411    -1.4266 H       
  42 H42           -3.1863    -6.7944     0.5000 H       
  43 H43           -4.5318    -3.5729    -3.6131 H       
  44 H44           -6.0505    -5.7870    -2.4646 H       
  45 H45           -8.4436    -5.6526    -3.2495 H       
  46 H46          -10.0009    -4.2934    -4.7360 H       
  47 H47           -8.8120    -2.6941    -6.3070 H       
@<TRIPOS>BOND
   1    1    7 1
   2    1   30 1
   3    1   31 1
   4    1   32 1
   5    2    8 2
   6    2   33 1
   7    3    4 1
   8    3    8 1
   9    3   34 1
  10    4    5 1
  11    4    9 1
  12    4   12 1
  13    5    6 1
  14    5   35 1
  15    5   36 1
  16    6    7 am
  17    6   10 2
  18    6   11 2
  19    7    8 1
  20    9   37 1
  21    9   38 1
  22    9   39 1
  23   12   14 ar
  24   12   13 ar
  25   13   18 1
  26   13   17 ar
  27   14   15 ar
  28   14   40 1
  29   15   16 ar
  30   15   19 1
  31   16   17 ar
  32   16   41 1
  33   17   42 1
  34   19   20 1
  35   19   43 1
  36   20   21 1
  37   20   26 1
  38   20   44 1
  39   21   22 2
  40   21   25 1
  41   22   23 1
  42   22   45 1
  43   23   24 2
  44   23   46 1
  45   24   25 1
  46   24   47 1
  47   26   27 1
  48   26   28 1
  49   26   29 1

#	End of record

