#	Name: ASD01238002
#	Creating user name:	WinNT
#	Creation time:	15. 06. 2019 19:15

#	Modifying user name:	WinNT
#	Modification time:	15. 06. 2019 19:15

#	Program:	/corina/corina34_cracker 3.40 0067  02.08.2006

@<TRIPOS>MOLECULE
ASD01238002
  42   44    0    0    0
SMALL
NO_CHARGES


@<TRIPOS>ATOM
   1 C1            -0.2089     1.4813    -0.1342 C.2     
   2 C2            -0.3387     0.0378    -0.4167 C.ar    
   3 C3            -0.5569    -0.8633     0.6284 C.ar    
   4 C4            -0.6780    -2.2090     0.3613 C.ar    
   5 C5            -0.5833    -2.6711    -0.9468 C.ar    
   6 C6            -0.3657    -1.7771    -1.9895 C.ar    
   7 C7            -0.2494    -0.4294    -1.7303 C.ar    
   8 O8            -0.9397     2.0093     0.6814 O.2     
   9 N9             0.7235     2.2125    -0.7765 N.am    
  10 N10           -0.7067    -4.0380    -1.2144 N.pl3   
  11 N11            0.0750    -4.7796    -2.1131 N.2     
  12 C12           -0.3372    -6.0235    -2.0882 C.2     
  13 C13           -1.3894    -6.1165    -1.1787 C.2     
  14 C14           -2.1853    -7.3421    -0.8047 C.3     
  15 C15           -2.9310    -7.0537     0.5040 C.3     
  16 C16           -3.6750    -5.7208     0.3858 C.3     
  17 C17           -2.6624    -4.5689     0.3702 C.3     
  18 C18           -1.5969    -4.8842    -0.6494 C.2     
  19 C19            0.2287    -7.1579    -2.9030 C.3     
  20 F20            1.3458    -6.7085    -3.6152 F       
  21 F21            0.6075    -8.2006    -2.0507 F       
  22 F22           -0.7419    -7.6176    -3.7995 F       
  23 C23            0.7905     3.6609    -0.5675 C.3     
  24 C24            1.6701     1.5587    -1.6837 C.3     
  25 H25           -0.6302    -0.5052     1.6447 H       
  26 H26           -0.8463    -2.9061     1.1687 H       
  27 H27           -0.2924    -2.1395    -3.0042 H       
  28 H28           -0.0849     0.2648    -2.5411 H       
  29 H29           -2.9025    -7.5689    -1.5936 H       
  30 H30           -1.5126    -8.1883    -0.6651 H       
  31 H31           -3.6463    -7.8530     0.6982 H       
  32 H32           -2.2160    -6.9991     1.3249 H       
  33 H33           -4.2536    -5.7084    -0.5379 H       
  34 H34           -4.3463    -5.6028     1.2364 H       
  35 H35           -3.1668    -3.6403     0.1030 H       
  36 H36           -2.2050    -4.4688     1.3545 H       
  37 H37            1.4581     3.8772     0.2666 H       
  38 H38            1.1691     4.1411    -1.4698 H       
  39 H39           -0.2058     4.0422    -0.3437 H       
  40 H40            1.5305     0.4787    -1.6378 H       
  41 H41            1.4950     1.9047    -2.7024 H       
  42 H42            2.6889     1.8064    -1.3858 H       
@<TRIPOS>BOND
   1    1    2 1
   2    1    8 2
   3    1    9 am
   4    2    3 ar
   5    2    7 ar
   6    3    4 ar
   7    3   25 1
   8    4    5 ar
   9    4   26 1
  10    5    6 ar
  11    5   10 1
  12    6    7 ar
  13    6   27 1
  14    7   28 1
  15    9   23 1
  16    9   24 1
  17   10   11 1
  18   10   18 1
  19   11   12 2
  20   12   13 1
  21   12   19 1
  22   13   14 1
  23   13   18 2
  24   14   15 1
  25   14   29 1
  26   14   30 1
  27   15   16 1
  28   15   31 1
  29   15   32 1
  30   16   17 1
  31   16   33 1
  32   16   34 1
  33   17   18 1
  34   17   35 1
  35   17   36 1
  36   19   20 1
  37   19   21 1
  38   19   22 1
  39   23   37 1
  40   23   38 1
  41   23   39 1
  42   24   40 1
  43   24   41 1
  44   24   42 1

#	End of record

