#	Name: ASD01230709
#	Creating user name:	WinNT
#	Creation time:	15. 06. 2019 19:14

#	Modifying user name:	WinNT
#	Modification time:	15. 06. 2019 19:14

#	Program:	/corina/corina34_cracker 3.40 0067  02.08.2006

@<TRIPOS>MOLECULE
ASD01230709
  56   59    0    0    0
SMALL
NO_CHARGES


@<TRIPOS>ATOM
   1 C1             0.3048     0.8780     0.5371 C.3     
   2 C2             0.5309    -0.5949     0.8889 C.3     
   3 C3            -0.7900    -1.3411     1.0130 C.3     
   4 C4            -1.9387    -0.4359     1.4354 C.3     
   5 N5            -1.4589     0.7010     2.2244 N.pl3   
   6 C6            -0.4831     1.4950     1.6800 C.2     
   7 C7            -1.9843     0.9518     3.5641 C.3     
   8 C8            -2.4524     2.4045     3.6644 C.3     
   9 S9            -1.0920     3.5073     3.1985 S.o2    
  10 N10           -0.2417     2.6917     2.0478 N.am    
  11 C11            1.6300     1.5800     0.3891 C.ar    
  12 C12            1.9669     2.1745    -0.8126 C.ar    
  13 C13            3.1826     2.8184    -0.9483 C.ar    
  14 C14            4.0612     2.8682     0.1177 C.ar    
  15 C15            3.7239     2.2745     1.3197 C.ar    
  16 C16            2.5064     1.6343     1.4568 C.ar    
  17 C17            5.3869     3.5693    -0.0305 C.3     
  18 C18            6.1333     2.9895    -1.2043 C.ar    
  19 C19            6.3818     1.6309    -1.2625 C.ar    
  20 C20            7.0665     1.0990    -2.3391 C.ar    
  21 C21            7.5023     1.9256    -3.3578 C.ar    
  22 C22            7.2530     3.2841    -3.3000 C.ar    
  23 C23            6.5645     3.8154    -2.2255 C.ar    
  24 C24            8.2496     1.3459    -4.5310 C.3     
  25 O25           -1.5911     4.6497     2.5166 O.2     
  26 O26           -0.1748     3.6455     4.2750 O.2     
  27 C27            5.1506     5.0629    -0.2638 C.3     
  28 C28            6.2112     3.3764     1.2438 C.3     
  29 H29           -0.2620     0.9554    -0.3908 H       
  30 H30            1.1321    -1.0604     0.1079 H       
  31 H31            1.0669    -0.6576     1.8360 H       
  32 H32           -1.0320    -1.7908     0.0501 H       
  33 H33           -0.6776    -2.1350     1.7515 H       
  34 H34           -2.4456    -0.0637     0.5451 H       
  35 H35           -2.6457    -1.0117     2.0327 H       
  36 H36           -2.8251     0.2851     3.7554 H       
  37 H37           -1.2019     0.7705     4.3011 H       
  38 H38           -3.2952     2.5623     2.9915 H       
  39 H39           -2.7592     2.6179     4.6884 H       
  40 H40            1.2805     2.1356    -1.6454 H       
  41 H41            3.4460     3.2823    -1.8874 H       
  42 H42            4.4105     2.3131     2.1525 H       
  43 H43            2.2429     1.1705     2.3958 H       
  44 H44            6.0413     0.9851    -0.4666 H       
  45 H45            7.2613     0.0377    -2.3842 H       
  46 H46            7.5938     3.9299    -4.0957 H       
  47 H47            6.3697     4.8767    -2.1804 H       
  48 H48            7.5410     1.0637    -5.3097 H       
  49 H49            8.9434     2.0895    -4.9232 H       
  50 H50            8.8050     0.4651    -4.2087 H       
  51 H51            4.6108     5.4823     0.5851 H       
  52 H52            6.1095     5.5700    -0.3711 H       
  53 H53            4.5633     5.2004    -1.1717 H       
  54 H54            6.3795     2.3123     1.4100 H       
  55 H55            7.1701     3.8835     1.1366 H       
  56 H56            5.6714     3.7958     2.0928 H       
@<TRIPOS>BOND
   1    1    2 1
   2    1   11 1
   3    1    6 1
   4    1   29 1
   5    2    3 1
   6    2   30 1
   7    2   31 1
   8    3    4 1
   9    3   32 1
  10    3   33 1
  11    4    5 1
  12    4   34 1
  13    4   35 1
  14    5    6 1
  15    5    7 1
  16    6   10 2
  17    7    8 1
  18    7   36 1
  19    7   37 1
  20    8    9 1
  21    8   38 1
  22    8   39 1
  23    9   10 am
  24    9   25 2
  25    9   26 2
  26   11   12 ar
  27   11   16 ar
  28   12   13 ar
  29   12   40 1
  30   13   14 ar
  31   13   41 1
  32   14   15 ar
  33   14   17 1
  34   15   16 ar
  35   15   42 1
  36   16   43 1
  37   17   18 1
  38   17   27 1
  39   17   28 1
  40   18   19 ar
  41   18   23 ar
  42   19   20 ar
  43   19   44 1
  44   20   21 ar
  45   20   45 1
  46   21   22 ar
  47   21   24 1
  48   22   23 ar
  49   22   46 1
  50   23   47 1
  51   24   48 1
  52   24   49 1
  53   24   50 1
  54   27   51 1
  55   27   52 1
  56   27   53 1
  57   28   54 1
  58   28   55 1
  59   28   56 1

#	End of record

