#	Name: ASD01814215
#	Creating user name:	WinNT
#	Creation time:	15. 06. 2019 19:31

#	Modifying user name:	WinNT
#	Modification time:	15. 06. 2019 19:31

#	Program:	/corina/corina34_cracker 3.40 0067  02.08.2006

@<TRIPOS>MOLECULE
ASD01814215
  52   56    0    0    0
SMALL
NO_CHARGES


@<TRIPOS>ATOM
   1 N1            -0.9242     1.9083     1.5380 N.2     
   2 C2            -1.1211     0.6641     1.9054 C.2     
   3 C3            -0.0300    -0.1666     2.2030 C.2     
   4 C4             1.2293     0.3274     2.1076 C.2     
   5 N5             1.4059     1.6260     1.7228 N.pl3   
   6 C6             0.3152     2.4071     1.4402 C.2     
   7 N7             2.5488     2.4102     1.5355 N.2     
   8 C8             2.1804     3.6171     1.1556 C.2     
   9 C9             0.7983     3.6602     1.0823 C.2     
  10 C10            2.7276     4.9697     0.7707 C.3     
  11 N11            1.5893     5.8396     0.4590 N.am    
  12 C12            0.3748     5.0398     0.6479 C.3     
  13 C13            1.6479     7.1294     0.0723 C.2     
  14 O14            0.6323     7.7131    -0.2540 O.2     
  15 C15            2.9433     7.8325     0.0450 C.ar    
  16 C16            3.2688     8.6682    -1.0328 C.ar    
  17 C17            3.8509     7.6739     1.0962 C.ar    
  18 C18            5.0591     8.3332     1.0660 C.ar    
  19 C19            5.3807     9.1564    -0.0049 C.ar    
  20 C20            4.4889     9.3251    -1.0490 C.ar    
  21 O21            2.3932     8.8326    -2.0558 O.3     
  22 C22            2.7296     9.8045    -3.0478 C.3     
  23 C23            1.4633    10.2621    -3.8006 C.3     
  24 C24            2.4176    -0.5443     2.4222 C.3     
  25 Cl25          -0.2901    -1.8126     2.6898 Cl      
  26 C26           -2.5247     0.1253     2.0088 C.3     
  27 O27            1.3000    11.6769    -3.6830 O.3     
  28 C28            3.6340     9.1757    -4.1295 C.3     
  29 N29            3.1877     9.8015    -5.4008 N.3     
  30 C30            1.7092     9.8714    -5.2738 C.3     
  31 F31            6.5687     9.7994    -0.0252 F       
  32 H32            3.2958     5.3884     1.6014 H       
  33 H33            3.3692     4.8730    -0.1051 H       
  34 H34           -0.1774     4.9786    -0.2899 H       
  35 H35           -0.2503     5.4937     1.4168 H       
  36 H36            3.6044     7.0352     1.9314 H       
  37 H37            5.7595     8.2099     1.8788 H       
  38 H38            4.7436     9.9698    -1.8772 H       
  39 H39            3.2273    10.6579    -2.5874 H       
  40 H40            0.5851     9.7454    -3.4134 H       
  41 H41            2.0735    -1.5383     2.7081 H       
  42 H42            3.0559    -0.6201     1.5419 H       
  43 H43            2.9829    -0.1051     3.2442 H       
  44 H44           -3.2349     0.9081     1.7423 H       
  45 H45           -2.6412    -0.7180     1.3281 H       
  46 H46           -2.7132    -0.2038     3.0307 H       
  47 H47            0.5444    12.0278    -4.1739 H       
  48 H48            4.6800     9.4133    -3.9355 H       
  49 H49            3.4889     8.0961    -4.1657 H       
  50 H50            3.5852    10.7225    -5.5095 H       
  51 H51            1.2628     8.9006    -5.4892 H       
  52 H52            1.3058    10.6327    -5.9414 H       
@<TRIPOS>BOND
   1    1    2 2
   2    1    6 1
   3    2    3 1
   4    2   26 1
   5    3    4 2
   6    3   25 1
   7    4    5 1
   8    4   24 1
   9    5    7 1
  10    5    6 1
  11    6    9 2
  12    7    8 2
  13    8   10 1
  14    8    9 1
  15    9   12 1
  16   10   11 1
  17   10   32 1
  18   10   33 1
  19   11   12 1
  20   11   13 am
  21   12   34 1
  22   12   35 1
  23   13   14 2
  24   13   15 1
  25   15   17 ar
  26   15   16 ar
  27   16   20 ar
  28   16   21 1
  29   17   18 ar
  30   17   36 1
  31   18   19 ar
  32   18   37 1
  33   19   20 ar
  34   19   31 1
  35   20   38 1
  36   21   22 1
  37   22   28 1
  38   22   23 1
  39   22   39 1
  40   23   30 1
  41   23   27 1
  42   23   40 1
  43   24   41 1
  44   24   42 1
  45   24   43 1
  46   26   44 1
  47   26   45 1
  48   26   46 1
  49   27   47 1
  50   28   29 1
  51   28   48 1
  52   28   49 1
  53   29   30 1
  54   29   50 1
  55   30   51 1
  56   30   52 1

#	End of record

