#	Name: ASD01915047
#	Creating user name:	WinNT
#	Creation time:	15. 06. 2019 20:04

#	Modifying user name:	WinNT
#	Modification time:	15. 06. 2019 20:04

#	Program:	/corina/corina34_cracker 3.40 0067  02.08.2006

@<TRIPOS>MOLECULE
ASD01915047
  29   31    0    0    0
SMALL
NO_CHARGES


@<TRIPOS>ATOM
   1 C1            -0.0180     1.4737     0.0101 C.2     
   2 C2             0.0021    -0.0041     0.0020 C.ar    
   3 C3             1.2186    -0.6883    -0.0133 C.ar    
   4 C4             1.2308    -2.0690    -0.0209 C.ar    
   5 C5             0.0396    -2.7747    -0.0138 C.ar    
   6 C6            -1.1702    -2.1017     0.0014 C.ar    
   7 C7            -1.1954    -0.7212     0.0154 C.ar    
   8 O8             1.0263     2.0957     0.0035 O.2     
   9 N9            -1.1942     2.1317     0.0193 N.am    
  10 Cl10          -2.6585    -2.9954     0.0096 Cl      
  11 Cl11           2.7428    -2.9219    -0.0399 Cl      
  12 C12           -1.2130     3.5150     0.0269 C.2     
  13 N13           -0.1061     4.3142     0.0260 N.pl3   
  14 C14           -0.5471     5.6264     0.0352 C.ar    
  15 C15           -1.9509     5.5663     0.0416 C.ar    
  16 N16           -2.2945     4.2520     0.0304 N.2     
  17 C17           -2.6898     6.7518     0.0515 C.ar    
  18 C18           -2.0371     7.9643     0.0551 C.ar    
  19 C19           -0.6513     8.0179     0.0488 C.ar    
  20 C20            0.0931     6.8562     0.0393 C.ar    
  21 H21            2.1485    -0.1389    -0.0195 H       
  22 H22            0.0543    -3.8546    -0.0205 H       
  23 H23           -2.1397    -0.1974     0.0321 H       
  24 H24           -2.0276     1.6353     0.0206 H       
  25 H25            0.8175     4.0177     0.0203 H       
  26 H26           -3.7692     6.7175     0.0561 H       
  27 H27           -2.6088     8.8806     0.0624 H       
  28 H28           -0.1515     8.9753     0.0513 H       
  29 H29            1.1720     6.9048     0.0343 H       
@<TRIPOS>BOND
   1    1    2 1
   2    1    8 2
   3    1    9 am
   4    2    3 ar
   5    2    7 ar
   6    3    4 ar
   7    3   21 1
   8    4    5 ar
   9    4   11 1
  10    5    6 ar
  11    5   22 1
  12    6    7 ar
  13    6   10 1
  14    7   23 1
  15    9   12 1
  16    9   24 1
  17   12   13 1
  18   12   16 2
  19   13   14 1
  20   13   25 1
  21   14   15 ar
  22   14   20 ar
  23   15   16 1
  24   15   17 ar
  25   17   18 ar
  26   17   26 1
  27   18   19 ar
  28   18   27 1
  29   19   20 ar
  30   19   28 1
  31   20   29 1

#	End of record

