#	Name: ASD01912375
#	Creating user name:	WinNT
#	Creation time:	15. 06. 2019 19:59

#	Modifying user name:	WinNT
#	Modification time:	15. 06. 2019 19:59

#	Program:	/corina/corina34_cracker 3.40 0067  02.08.2006

@<TRIPOS>MOLECULE
ASD01912375
  45   47    0    0    0
SMALL
NO_CHARGES


@<TRIPOS>ATOM
   1 C1            -0.0010     1.3933     0.0682 C.ar    
   2 C2             0.0188    -0.0045     0.0640 C.ar    
   3 C3             1.2372    -0.6584     0.0643 C.ar    
   4 C4             2.3988     0.1025     0.0688 C.ar    
   5 C5             2.3076     1.4825     0.0727 C.ar    
   6 N6             1.1357     2.0836     0.0724 N.ar    
   7 C7             3.5670     2.3101     0.0776 C.3     
   8 C8            -1.2539     2.0866     0.0619 C.1     
   9 C9            -2.2811     2.6550     0.0567 C.1     
  10 C10           -3.5341     3.3484     0.0504 C.2     
  11 N11           -3.6114     7.1941     1.1725 N.am    
  12 C12           -4.8649     6.4300     1.2123 C.3     
  13 C13           -4.8716     5.4315     0.0478 C.3     
  14 C14           -3.5583     4.6804     0.0543 C.2     
  15 C15           -2.2732     5.4788     0.0649 C.3     
  16 C16           -2.3316     6.4761     1.2290 C.3     
  17 C17           -3.6352     8.5385     1.0796 C.2     
  18 O18           -2.5964     9.1698     1.1252 O.2     
  19 C19           -5.9657     9.0911     1.7779 C.2     
  20 C20           -4.9170     9.2421     0.9232 C.2     
  21 C21           -5.1935    10.1665    -0.1545 C.2     
  22 C22           -6.4192    10.6842    -0.0936 C.2     
  23 S23           -7.2865    10.0542     1.2958 S.3     
  24 O24           -4.2943    10.4755    -1.1293 O.3     
  25 C25           -4.3062     9.6624    -2.3043 C.3     
  26 Cl26          -7.0685    11.8238    -1.2309 Cl      
  27 H27           -0.9041    -0.5655     0.0610 H       
  28 H28            1.2843    -1.7374     0.0615 H       
  29 H29            3.3654    -0.3793     0.0695 H       
  30 H30            3.8726     2.5127    -0.9489 H       
  31 H31            3.3809     3.2518     0.5939 H       
  32 H32            4.3584     1.7643     0.5913 H       
  33 H33           -4.4594     2.7915     0.0425 H       
  34 H34           -4.9340     5.8904     2.1568 H       
  35 H35           -5.7108     7.1105     1.1151 H       
  36 H36           -5.6964     4.7296     0.1710 H       
  37 H37           -4.9831     5.9676    -0.8947 H       
  38 H38           -1.4251     4.8073     0.1992 H       
  39 H39           -2.1689     6.0188    -0.8761 H       
  40 H40           -1.5097     7.1869     1.1427 H       
  41 H41           -2.2553     5.9391     2.1744 H       
  42 H42           -5.9627     8.4443     2.6428 H       
  43 H43           -5.2855     9.7243    -2.7790 H       
  44 H44           -3.5433    10.0154    -2.9982 H       
  45 H45           -4.0991     8.6275    -2.0322 H       
@<TRIPOS>BOND
   1    1    2 ar
   2    1    6 ar
   3    1    8 1
   4    2    3 ar
   5    2   27 1
   6    3    4 ar
   7    3   28 1
   8    4    5 ar
   9    4   29 1
  10    5    6 ar
  11    5    7 1
  12    7   30 1
  13    7   31 1
  14    7   32 1
  15    8    9 3
  16    9   10 1
  17   10   14 2
  18   10   33 1
  19   11   12 1
  20   11   16 1
  21   11   17 am
  22   12   13 1
  23   12   34 1
  24   12   35 1
  25   13   14 1
  26   13   36 1
  27   13   37 1
  28   14   15 1
  29   15   16 1
  30   15   38 1
  31   15   39 1
  32   16   40 1
  33   16   41 1
  34   17   18 2
  35   17   20 1
  36   19   20 2
  37   19   23 1
  38   19   42 1
  39   20   21 1
  40   21   22 2
  41   21   24 1
  42   22   23 1
  43   22   26 1
  44   24   25 1
  45   25   43 1
  46   25   44 1
  47   25   45 1

#	End of record

