#	Name: ASD01150458
#	Creating user name:	WinNT
#	Creation time:	15. 06. 2019 19:04

#	Modifying user name:	WinNT
#	Modification time:	15. 06. 2019 19:04

#	Program:	/corina/corina34_cracker 3.40 0067  02.08.2006

@<TRIPOS>MOLECULE
ASD01150458
  51   54    0    0    0
SMALL
NO_CHARGES


@<TRIPOS>ATOM
   1 C1             1.9143     1.4016     0.9687 C.ar    
   2 C2             1.9596     0.0213     0.9430 C.ar    
   3 C3             0.4926     0.0046    -0.9573 C.ar    
   4 C4             0.4445     1.3911    -0.9341 C.ar    
   5 C5             1.1563     2.0910     0.0298 C.ar    
   6 N6             1.1105     3.4892     0.0567 N.am    
   7 C7            -0.0780     4.1147    -0.0078 C.2     
   8 N8            -0.1589     5.4581     0.0161 N.am    
   9 C9             0.9636     6.2013     0.1061 C.2     
  10 C10            2.2667     5.5231     0.1770 C.2     
  11 N11            2.3023     4.2168     0.1563 N.2     
  12 O12            0.8987     7.4163     0.1278 O.2     
  13 C13           -1.4670     6.1139    -0.0561 C.3     
  14 O14           -1.0968     3.4557    -0.0895 O.2     
  15 C15           -2.0092     6.3079     1.3365 C.ar    
  16 C16           -1.7159     7.4803     2.0300 C.ar    
  17 C17           -2.1895     7.6868     3.2894 C.ar    
  18 C18           -2.9866     6.7053     3.9020 C.ar    
  19 C19           -3.2854     5.5128     3.1963 C.ar    
  20 C20           -2.7828     5.3376     1.8960 C.ar    
  21 O21            3.4151     6.2432     0.2677 O.3     
  22 C22            4.6386     5.5078     0.3321 C.3     
  23 C23            1.2518    -0.6785    -0.0157 C.ar    
  24 N24           -0.2233    -0.7049    -1.9279 N.am    
  25 C25            0.2667    -1.8622    -2.4149 C.2     
  26 C26           -0.5545    -2.6831    -3.3755 C.3     
  27 O27            1.3684    -2.2429    -2.0799 O.2     
  28 C28           -3.4931     6.8824     5.2010 C.ar    
  29 C29           -4.2615     5.9096     5.7625 C.ar    
  30 C30           -4.5554     4.7371     5.0685 C.ar    
  31 C31           -4.0824     4.5308     3.8093 C.ar    
  32 H32            2.4650     1.9454     1.7220 H       
  33 H33            2.5496    -0.5122     1.6735 H       
  34 H34           -0.1453     1.9245    -1.6649 H       
  35 H35           -1.3610     7.0833    -0.5431 H       
  36 H36           -2.1540     5.4921    -0.6301 H       
  37 H37           -1.1034     8.2364     1.5614 H       
  38 H38           -1.9534     8.6002     3.8151 H       
  39 H39           -3.0023     4.4342     1.3464 H       
  40 H40            5.4764     6.2016     0.4019 H       
  41 H41            4.6282     4.8614     1.2097 H       
  42 H42            4.7446     4.8993    -0.5660 H       
  43 H43            1.2893    -1.7577    -0.0331 H       
  44 H44           -1.0722    -0.3638    -2.2503 H       
  45 H45           -0.3365    -2.3725    -4.3973 H       
  46 H46           -0.3069    -3.7379    -3.2557 H       
  47 H47           -1.6140    -2.5328    -3.1682 H       
  48 H48           -3.2734     7.7856     5.7508 H       
  49 H49           -4.6492     6.0481     6.7609 H       
  50 H50           -5.1677     3.9809     5.5373 H       
  51 H51           -4.3186     3.6174     3.2836 H       
@<TRIPOS>BOND
   1    1    2 ar
   2    1    5 ar
   3    1   32 1
   4    2   23 ar
   5    2   33 1
   6    3    4 ar
   7    3   24 1
   8    3   23 ar
   9    4    5 ar
  10    4   34 1
  11    5    6 1
  12    6    7 am
  13    6   11 1
  14    7    8 am
  15    7   14 2
  16    8    9 am
  17    8   13 1
  18    9   10 1
  19    9   12 2
  20   10   11 2
  21   10   21 1
  22   13   15 1
  23   13   35 1
  24   13   36 1
  25   15   16 ar
  26   15   20 ar
  27   16   17 ar
  28   16   37 1
  29   17   18 ar
  30   17   38 1
  31   18   19 ar
  32   18   28 ar
  33   19   20 ar
  34   19   31 ar
  35   20   39 1
  36   21   22 1
  37   22   40 1
  38   22   41 1
  39   22   42 1
  40   23   43 1
  41   24   25 am
  42   24   44 1
  43   25   26 1
  44   25   27 2
  45   26   45 1
  46   26   46 1
  47   26   47 1
  48   28   29 ar
  49   28   48 1
  50   29   30 ar
  51   29   49 1
  52   30   31 ar
  53   30   50 1
  54   31   51 1

#	End of record

