#	Name: ASD08178430
#	Creating user name:	WinNT
#	Creation time:	15. 06. 2019 21:18

#	Modifying user name:	WinNT
#	Modification time:	15. 06. 2019 21:18

#	Program:	/corina/corina34_cracker 3.40 0067  02.08.2006

@<TRIPOS>MOLECULE
ASD08178430
  80   83    0    0    0
SMALL
NO_CHARGES


@<TRIPOS>ATOM
   1 C1            -5.8830    -4.7413     2.6153 C.ar    
   2 C2            -5.7467    -3.4185     2.2401 C.ar    
   3 C3            -6.7313    -2.5028     2.5611 C.ar    
   4 C4            -7.8550    -2.9079     3.2578 C.ar    
   5 C5            -7.9960    -4.2291     3.6352 C.ar    
   6 C6            -7.0092    -5.1502     3.3142 C.ar    
   7 C7            -4.5234    -2.9736     1.4808 C.3     
   8 C8            -4.7753    -3.1053     0.0009 C.2     
   9 N9            -3.8140    -2.7626    -0.8795 N.am    
  10 O10           -5.8430    -3.5196    -0.3980 O.2     
  11 C11           -4.0063    -2.9834    -2.2428 C.ar    
  12 C12           -3.0654    -2.5293    -3.1649 C.ar    
  13 N13           -5.0814    -3.6307    -2.6668 N.ar    
  14 N14           -5.2952    -3.8547    -3.9124 N.ar    
  15 C15           -4.4608    -3.4565    -4.8527 C.ar    
  16 C16           -3.3027    -2.7745    -4.5089 C.ar    
  17 C17           -4.7623    -3.7477    -6.3002 C.3     
  18 C18           -4.9807    -5.2509    -6.4833 C.3     
  19 C19           -5.2868    -5.5465    -7.9530 C.3     
  20 C20           -5.5052    -7.0497    -8.1361 C.3     
  21 C21           -5.8066    -7.3408    -9.5837 C.2     
  22 N22           -4.9382    -7.6144   -10.5048 N.2     
  23 N23           -5.3921    -7.8296   -11.6631 N.2     
  24 C24           -6.6783    -7.7588   -11.8295 C.2     
  25 S25           -7.4063    -7.3777   -10.3263 S.3     
  26 N26           -7.3532    -7.9640   -13.0281 N.am    
  27 C27           -8.6963    -7.8612   -13.0713 C.2     
  28 C28           -9.4185    -7.9727   -14.3893 C.3     
  29 O29           -9.3238    -7.6788   -12.0496 O.2     
  30 C30          -10.8862    -7.7006   -14.1825 C.ar    
  31 C31          -11.3717    -6.4107   -14.2892 C.ar    
  32 C32          -12.7180    -6.1610   -14.0994 C.ar    
  33 C33          -13.5789    -7.2013   -13.8035 C.ar    
  34 C34          -13.0936    -8.4913   -13.6978 C.ar    
  35 C35          -11.7480    -8.7416   -13.8918 C.ar    
  36 C36           -6.6041    -8.2920   -14.2436 C.3     
  37 O37           -6.5679    -7.1330   -15.1174 O.3     
  38 C38           -5.6955    -6.1617   -14.8055 C.2     
  39 C39           -5.6841    -4.8775   -15.5939 C.3     
  40 O40           -4.9193    -6.3171   -13.8926 O.2     
  41 C41           -4.6039    -3.9473   -15.0380 C.3     
  42 C42           -4.5923    -2.6435   -15.8385 C.3     
  43 O43           -7.1458    -6.4508     3.6840 O.3     
  44 C44           -8.3313    -6.8002     4.4013 C.3     
  45 F45           -9.4531    -6.5128     3.6163 F       
  46 F46           -8.3095    -8.1666     4.7008 F       
  47 F47           -8.3921    -6.0633     5.5890 F       
  48 H48           -5.1154    -5.4571     2.3608 H       
  49 H49           -6.6226    -1.4691     2.2676 H       
  50 H50           -8.6229    -2.1906     3.5074 H       
  51 H51           -8.8735    -4.5449     4.1799 H       
  52 H52           -4.3051    -1.9330     1.7210 H       
  53 H53           -3.6746    -3.5971     1.7618 H       
  54 H54           -2.9884    -2.3623    -0.5647 H       
  55 H55           -2.1793    -2.0025    -2.8429 H       
  56 H56           -2.6085    -2.4408    -5.2659 H       
  57 H57           -5.6626    -3.2107    -6.5990 H       
  58 H58           -3.9245    -3.4243    -6.9180 H       
  59 H59           -4.0804    -5.7879    -6.1846 H       
  60 H60           -5.8185    -5.5742    -5.8656 H       
  61 H61           -6.1870    -5.0095    -8.2518 H       
  62 H62           -4.4490    -5.2231    -8.5708 H       
  63 H63           -4.6049    -7.5867    -7.8374 H       
  64 H64           -6.3430    -7.3730    -7.5184 H       
  65 H65           -9.0094    -7.2454   -15.0905 H       
  66 H66           -9.2884    -8.9777   -14.7910 H       
  67 H67          -10.6991    -5.5979   -14.5204 H       
  68 H68          -13.0972    -5.1531   -14.1820 H       
  69 H69          -14.6306    -7.0061   -13.6546 H       
  70 H70          -13.7661    -9.3040   -13.4663 H       
  71 H71          -11.3688    -9.7495   -13.8092 H       
  72 H72           -5.5866    -8.5782   -13.9772 H       
  73 H73           -7.0914    -9.1201   -14.7584 H       
  74 H74           -5.4722    -5.0956   -16.6407 H       
  75 H75           -6.6572    -4.3931   -15.5135 H       
  76 H76           -4.8158    -3.7292   -13.9913 H       
  77 H77           -3.6308    -4.4317   -15.1184 H       
  78 H78           -4.3805    -2.8616   -16.8852 H       
  79 H79           -5.5655    -2.1591   -15.7581 H       
  80 H80           -3.8228    -1.9808   -15.4424 H       
@<TRIPOS>BOND
   1    1    2 ar
   2    1    6 ar
   3    1   48 1
   4    2    3 ar
   5    2    7 1
   6    3    4 ar
   7    3   49 1
   8    4    5 ar
   9    4   50 1
  10    5    6 ar
  11    5   51 1
  12    6   43 1
  13    7    8 1
  14    7   52 1
  15    7   53 1
  16    8    9 am
  17    8   10 2
  18    9   11 1
  19    9   54 1
  20   11   12 ar
  21   11   13 ar
  22   12   16 ar
  23   12   55 1
  24   13   14 ar
  25   14   15 ar
  26   15   16 ar
  27   15   17 1
  28   16   56 1
  29   17   18 1
  30   17   57 1
  31   17   58 1
  32   18   19 1
  33   18   59 1
  34   18   60 1
  35   19   20 1
  36   19   61 1
  37   19   62 1
  38   20   21 1
  39   20   63 1
  40   20   64 1
  41   21   22 2
  42   21   25 1
  43   22   23 1
  44   23   24 2
  45   24   25 1
  46   24   26 1
  47   26   27 am
  48   26   36 1
  49   27   28 1
  50   27   29 2
  51   28   30 1
  52   28   65 1
  53   28   66 1
  54   30   31 ar
  55   30   35 ar
  56   31   32 ar
  57   31   67 1
  58   32   33 ar
  59   32   68 1
  60   33   34 ar
  61   33   69 1
  62   34   35 ar
  63   34   70 1
  64   35   71 1
  65   36   37 1
  66   36   72 1
  67   36   73 1
  68   37   38 1
  69   38   39 1
  70   38   40 2
  71   39   41 1
  72   39   74 1
  73   39   75 1
  74   41   42 1
  75   41   76 1
  76   41   77 1
  77   42   78 1
  78   42   79 1
  79   42   80 1
  80   43   44 1
  81   44   45 1
  82   44   46 1
  83   44   47 1

#	End of record

