#	Name: ASD04910392
#	Creating user name:	WinNT
#	Creation time:	15. 06. 2019 20:55

#	Modifying user name:	WinNT
#	Modification time:	15. 06. 2019 20:55

#	Program:	/corina/corina34_cracker 3.40 0067  02.08.2006

@<TRIPOS>MOLECULE
ASD04910392
  56   58    0    0    0
SMALL
NO_CHARGES


@<TRIPOS>ATOM
   1 C1            -0.0159     1.3226     0.0093 C.ar    
   2 N2             0.0021    -0.0041     0.0020 N.ar    
   3 C3             1.1432    -0.6663    -0.0125 C.ar    
   4 C4             2.3463     0.0530    -0.0202 C.ar    
   5 C5             2.2824     1.4531    -0.0120 C.ar    
   6 N6             1.1005     2.0395     0.0025 N.ar    
   7 C7             3.6447    -0.6449    -0.0359 C.2     
   8 O8             3.6817    -1.8594    -0.0423 O.2     
   9 O9             4.7906     0.0640    -0.0431 O.3     
  10 N10           -1.2306     1.9755     0.0186 N.pl3   
  11 C11           -1.2751     3.4398     0.0267 C.3     
  12 C12           -1.1717     3.9611    -1.4080 C.3     
  13 C13            0.1993     3.6011    -1.9839 C.3     
  14 C14            0.2575     4.0114    -3.4567 C.3     
  15 C15           -2.5747     3.8994     0.6358 C.ar    
  16 C16           -2.5907     4.9902     1.4856 C.ar    
  17 C17           -3.7802     5.4138     2.0453 C.ar    
  18 C18           -4.9606     4.7436     1.7537 C.ar    
  19 C19           -4.9413     3.6490     0.8998 C.ar    
  20 C20           -3.7495     3.2331     0.3393 C.ar    
  21 N21           -6.1694     5.1709     2.3206 N.pl3   
  22 N22           -6.3331     6.2541     3.1937 N.2     
  23 C23           -7.6011     6.3397     3.5062 C.2     
  24 C24           -8.2858     5.3152     2.8433 C.2     
  25 C25           -7.3847     4.6140     2.1169 C.2     
  26 C26           -9.7662     5.0442     2.9200 C.3     
  27 F27          -10.3689     5.9824     3.7648 F       
  28 F28          -10.3250     5.1415     1.6411 F       
  29 F29           -9.9791     3.7571     3.4251 F       
  30 C30            1.2895     4.3399    -1.2051 C.3     
  31 C31            6.0318    -0.6893    -0.0585 C.3     
  32 C32            7.2162     0.2792    -0.0648 C.3     
  33 H33            1.1502    -1.7462    -0.0180 H       
  34 H34            3.1870     2.0432    -0.0172 H       
  35 H35           -2.0555     1.4651     0.0197 H       
  36 H36           -0.4420     3.8253     0.6144 H       
  37 H37           -1.9526     3.5060    -2.0171 H       
  38 H38           -1.2939     5.0443    -1.4106 H       
  39 H39            0.3578     2.5260    -1.8997 H       
  40 H40            0.0990     5.0865    -3.5409 H       
  41 H41            1.2342     3.7549    -3.8670 H       
  42 H42           -0.5192     3.4851    -4.0114 H       
  43 H43           -1.6722     5.5112     1.7120 H       
  44 H44           -3.7920     6.2654     2.7095 H       
  45 H45           -5.8580     3.1257     0.6711 H       
  46 H46           -3.7344     2.3840    -0.3280 H       
  47 H47           -8.0429     7.0743     4.1631 H       
  48 H48           -7.5976     3.7615     1.4891 H       
  49 H49            1.2481     4.0476    -0.1559 H       
  50 H50            2.2663     4.0834    -1.6154 H       
  51 H51            1.1311     5.4150    -1.2893 H       
  52 H52            6.0841    -1.3216     0.8278 H       
  53 H53            6.0674    -1.3126    -0.9520 H       
  54 H54            8.1480    -0.2864    -0.0764 H       
  55 H55            7.1639     0.9114    -0.9511 H       
  56 H56            7.1806     0.9024     0.8288 H       
@<TRIPOS>BOND
   1    1    2 ar
   2    1    6 ar
   3    1   10 1
   4    2    3 ar
   5    3    4 ar
   6    3   33 1
   7    4    5 ar
   8    4    7 1
   9    5    6 ar
  10    5   34 1
  11    7    8 2
  12    7    9 1
  13    9   31 1
  14   10   11 1
  15   10   35 1
  16   11   12 1
  17   11   15 1
  18   11   36 1
  19   12   13 1
  20   12   37 1
  21   12   38 1
  22   13   14 1
  23   13   30 1
  24   13   39 1
  25   14   40 1
  26   14   41 1
  27   14   42 1
  28   15   16 ar
  29   15   20 ar
  30   16   17 ar
  31   16   43 1
  32   17   18 ar
  33   17   44 1
  34   18   19 ar
  35   18   21 1
  36   19   20 ar
  37   19   45 1
  38   20   46 1
  39   21   22 1
  40   21   25 1
  41   22   23 2
  42   23   24 1
  43   23   47 1
  44   24   25 2
  45   24   26 1
  46   25   48 1
  47   26   27 1
  48   26   28 1
  49   26   29 1
  50   30   49 1
  51   30   50 1
  52   30   51 1
  53   31   32 1
  54   31   52 1
  55   31   53 1
  56   32   54 1
  57   32   55 1
  58   32   56 1

#	End of record

