#	Name: ASD01900382
#	Creating user name:	WinNT
#	Creation time:	15. 06. 2019 19:51

#	Modifying user name:	WinNT
#	Modification time:	15. 06. 2019 19:51

#	Program:	/corina/corina34_cracker 3.40 0067  02.08.2006

@<TRIPOS>MOLECULE
ASD01900382
  25   27    0    0    0
SMALL
NO_CHARGES


@<TRIPOS>ATOM
   1 C1             0.0286     1.4031     0.4592 C.ar    
   2 C2             0.0595     0.0194     0.5736 C.ar    
   3 N3             1.1760    -0.6548     0.4172 N.ar    
   4 C4             2.3248    -0.0416     0.1427 C.ar    
   5 C5             2.3679     1.3597     0.0125 C.ar    
   6 C6             1.1919     2.0911     0.1754 C.ar    
   7 C7             3.6940    -0.5122    -0.0800 C.2     
   8 N8             4.4412     0.5336    -0.3149 N.2     
   9 N9             3.6659     1.6967    -0.2667 N.pl3   
  10 N10            4.1242    -1.8424    -0.0472 N.pl3   
  11 C11            5.4846    -2.1400    -0.1673 C.ar    
  12 C12            6.4480    -1.2168     0.2332 C.ar    
  13 C13            5.8954    -3.3629    -0.6823 C.ar    
  14 N14            7.1774    -3.6479    -0.7964 N.ar    
  15 C15            8.1146    -2.7936    -0.4310 C.ar    
  16 C16            7.7833    -1.5573     0.0952 C.ar    
  17 Cl17           9.7858    -3.2295    -0.6063 Cl      
  18 H18           -0.9010     1.9379     0.5871 H       
  19 H19           -0.8533    -0.5133     0.7960 H       
  20 H20            1.1908     3.1670     0.0817 H       
  21 H21            3.9948     2.5981    -0.4090 H       
  22 H22            3.4786    -2.5585     0.0589 H       
  23 H23            6.1606    -0.2589     0.6410 H       
  24 H24            5.1571    -4.0877    -0.9921 H       
  25 H25            8.5571    -0.8645     0.3912 H       
@<TRIPOS>BOND
   1    1    2 ar
   2    1    6 ar
   3    1   18 1
   4    2    3 ar
   5    2   19 1
   6    3    4 ar
   7    4    5 ar
   8    4    7 1
   9    5    6 ar
  10    5    9 1
  11    6   20 1
  12    7    8 2
  13    7   10 1
  14    8    9 1
  15    9   21 1
  16   10   11 1
  17   10   22 1
  18   11   12 ar
  19   11   13 ar
  20   12   16 ar
  21   12   23 1
  22   13   14 ar
  23   13   24 1
  24   14   15 ar
  25   15   16 ar
  26   15   17 1
  27   16   25 1

#	End of record

