#	Name: ASD03330110
#	Creating user name:	WinNT
#	Creation time:	15. 06. 2019 20:36

#	Modifying user name:	WinNT
#	Modification time:	15. 06. 2019 20:36

#	Program:	/corina/corina34_cracker 3.40 0067  02.08.2006

@<TRIPOS>MOLECULE
ASD03330110
  33   34    0    0    0
SMALL
NO_CHARGES


@<TRIPOS>ATOM
   1 N1            -0.0179     1.4664     0.0101 N.am    
   2 C2             0.0021    -0.0041     0.0020 C.3     
   3 C3             1.3598     0.0722    -0.7099 C.3     
   4 C4             1.4523     1.4322    -0.0041 C.3     
   5 C5            -0.9662     2.4241     0.0201 C.2     
   6 O6            -2.1414     2.1153     0.0243 O.2     
   7 O7            -0.6114     3.7228     0.0253 O.3     
   8 C8             2.3664    -0.9421    -0.2312 C.2     
   9 O9             2.0692    -1.7223     0.6422 O.2     
  10 O10            3.5930    -0.9787    -0.7751 O.3     
  11 C11            4.5106    -1.9818    -0.2651 C.3     
  12 C12           -1.6857     4.6996     0.0361 C.3     
  13 C13           -1.1015     6.0888     0.0407 C.ar    
  14 C14           -0.8395     6.7324    -1.1543 C.ar    
  15 C15           -0.3036     8.0066    -1.1501 C.ar    
  16 C16           -0.0300     8.6374     0.0491 C.ar    
  17 C17           -0.2928     7.9941     1.2441 C.ar    
  18 C18           -0.8328     6.7216     1.2399 C.ar    
  19 H19            0.0583    -0.4429     0.9982 H       
  20 H20           -0.7846    -0.4455    -0.6098 H       
  21 H21            1.2921     0.1360    -1.7959 H       
  22 H22            1.8987     2.2120    -0.6212 H       
  23 H23            1.8949     1.3759     0.9904 H       
  24 H24            4.0894    -2.9743    -0.4251 H       
  25 H25            5.4632    -1.9025    -0.7887 H       
  26 H26            4.6678    -1.8215     0.8016 H       
  27 H27           -2.3046     4.5687    -0.8515 H       
  28 H28           -2.2957     4.5590     0.9284 H       
  29 H29           -1.0533     6.2396    -2.0913 H       
  30 H30           -0.0983     8.5092    -2.0838 H       
  31 H31            0.3893     9.6327     0.0524 H       
  32 H32           -0.0787     8.4868     2.1811 H       
  33 H33           -1.0415     6.2205     2.1736 H       
@<TRIPOS>BOND
   1    1    2 1
   2    1    4 1
   3    1    5 am
   4    2    3 1
   5    2   19 1
   6    2   20 1
   7    3    4 1
   8    3    8 1
   9    3   21 1
  10    4   22 1
  11    4   23 1
  12    5    6 2
  13    5    7 1
  14    7   12 1
  15    8    9 2
  16    8   10 1
  17   10   11 1
  18   11   24 1
  19   11   25 1
  20   11   26 1
  21   12   13 1
  22   12   27 1
  23   12   28 1
  24   13   14 ar
  25   13   18 ar
  26   14   15 ar
  27   14   29 1
  28   15   16 ar
  29   15   30 1
  30   16   17 ar
  31   16   31 1
  32   17   18 ar
  33   17   32 1
  34   18   33 1

#	End of record

