#	Name: ASD06660090
#	Creating user name:	WinNT
#	Creation time:	15. 06. 2019 21:08

#	Modifying user name:	WinNT
#	Modification time:	15. 06. 2019 21:08

#	Program:	/corina/corina34_cracker 3.40 0067  02.08.2006

@<TRIPOS>MOLECULE
ASD06660090
  77   81    0    0    0
SMALL
NO_CHARGES


@<TRIPOS>ATOM
   1 C1            -0.0184     1.5028     0.0103 C.2     
   2 C2             0.0021    -0.0041     0.0020 C.3     
   3 C3            -0.7241    -0.5171    -1.2431 C.3     
   4 O4             1.0197     2.1211     0.0037 O.2     
   5 O5            -1.1898     2.1580     0.0194 O.3     
   6 C6             2.0717    -0.5994     1.1419 C.2     
   7 C7             3.4721    -1.0732     1.1260 C.ar    
   8 C8             3.7517    -2.4373     1.2212 C.ar    
   9 C9             5.0606    -2.8728     1.2053 C.ar    
  10 C10            6.0951    -1.9606     1.0957 C.ar    
  11 C11            5.8249    -0.6070     1.0009 C.ar    
  12 C12            4.5202    -0.1587     1.0099 C.ar    
  13 O13            1.5355    -0.3233     2.1972 O.2     
  14 N14            1.3897    -0.4735    -0.0138 N.am    
  15 C15            4.2274     1.3155     0.9003 C.3     
  16 C16            7.5225    -2.4435     1.0799 C.3     
  17 C17            2.6262    -3.4322     1.3416 C.3     
  18 C18           -0.8113    -2.0207    -1.1900 C.ar    
  19 C19           -1.8983    -2.6278    -0.5884 C.ar    
  20 C20           -1.9814    -4.0054    -0.5380 C.ar    
  21 C21           -0.9713    -4.7813    -1.0925 C.ar    
  22 C22            0.1192    -4.1682    -1.6960 C.ar    
  23 C23            0.1932    -2.7901    -1.7480 C.ar    
  24 N24           -1.0519    -6.1748    -1.0428 N.3     
  25 C25            0.1154    -6.7927    -1.6847 C.3     
  26 C26           -0.0755    -8.3100    -1.7414 C.3     
  27 C27           -0.2456    -8.8516    -0.3193 C.3     
  28 C28           -1.4383    -8.1570     0.3437 C.3     
  29 C29           -1.2079    -6.6440     0.3399 C.3     
  30 C30           -0.4975   -10.3598    -0.3732 C.3     
  31 N31           -0.5413   -10.8966     0.9892 N.pl3   
  32 C32           -0.7579   -12.2431     1.1930 C.2     
  33 N33           -0.9438   -13.1662     0.2042 N.pl3   
  34 C34           -1.1267   -14.3946     0.8180 C.ar    
  35 C35           -1.0411   -14.1572     2.2000 C.ar    
  36 N36           -0.8102   -12.8279     2.3638 N.2     
  37 C37           -1.1877   -15.2226     3.0910 C.ar    
  38 C38           -1.4142   -16.4923     2.6077 C.ar    
  39 C39           -1.4973   -16.7211     1.2426 C.ar    
  40 C40           -1.3554   -15.6789     0.3492 C.ar    
  41 H41           -0.4983    -0.3791     0.8948 H       
  42 H42           -1.7288    -0.0959    -1.2772 H       
  43 H43           -0.1736    -0.2164    -2.1345 H       
  44 H44           -1.1523     3.1243     0.0245 H       
  45 H45            5.2783    -3.9281     1.2788 H       
  46 H46            6.6369     0.0999     0.9156 H       
  47 H47            1.8177    -0.6938    -0.8559 H       
  48 H48            4.1969     1.7550     1.8973 H       
  49 H49            5.0092     1.7986     0.3141 H       
  50 H50            3.2645     1.4593     0.4103 H       
  51 H51            7.8285    -2.6396     0.0523 H       
  52 H52            8.1692    -1.6799     1.5121 H       
  53 H53            7.6024    -3.3604     1.6640 H       
  54 H54            2.3155    -3.7516     0.3468 H       
  55 H55            2.9653    -4.2973     1.9115 H       
  56 H56            1.7836    -2.9674     1.8536 H       
  57 H57           -2.6831    -2.0240    -0.1572 H       
  58 H58           -2.8305    -4.4790    -0.0677 H       
  59 H59            0.9062    -4.7685    -2.1281 H       
  60 H60            1.0385    -2.3127    -2.2213 H       
  61 H61            0.2226    -6.4021    -2.6967 H       
  62 H62            1.0115    -6.5606    -1.1092 H       
  63 H63           -0.9638    -8.5434    -2.3284 H       
  64 H64            0.7981    -8.7697    -2.2037 H       
  65 H65            0.6581    -8.6527     0.2568 H       
  66 H66           -2.3480    -8.3879    -0.2105 H       
  67 H67           -1.5385    -8.5072     1.3710 H       
  68 H68           -0.3056    -6.4127     0.9059 H       
  69 H69           -2.0619    -6.1455     0.7984 H       
  70 H70           -1.4485   -10.5517    -0.8701 H       
  71 H71            0.3065   -10.8428    -0.9284 H       
  72 H72           -0.4180   -10.3049     1.7478 H       
  73 H73           -0.9478   -12.9938    -0.7504 H       
  74 H74           -1.1234   -15.0516     4.1555 H       
  75 H75           -1.5275   -17.3159     3.2971 H       
  76 H76           -1.6749   -17.7214     0.8762 H       
  77 H77           -1.4214   -15.8636    -0.7128 H       
@<TRIPOS>BOND
   1    1    2 1
   2    1    4 2
   3    1    5 1
   4    2    3 1
   5    2   14 1
   6    2   41 1
   7    3   18 1
   8    3   42 1
   9    3   43 1
  10    5   44 1
  11    6    7 1
  12    6   13 2
  13    6   14 am
  14    7    8 ar
  15    7   12 ar
  16    8    9 ar
  17    8   17 1
  18    9   10 ar
  19    9   45 1
  20   10   11 ar
  21   10   16 1
  22   11   12 ar
  23   11   46 1
  24   12   15 1
  25   14   47 1
  26   15   48 1
  27   15   49 1
  28   15   50 1
  29   16   51 1
  30   16   52 1
  31   16   53 1
  32   17   54 1
  33   17   55 1
  34   17   56 1
  35   18   19 ar
  36   18   23 ar
  37   19   20 ar
  38   19   57 1
  39   20   21 ar
  40   20   58 1
  41   21   22 ar
  42   21   24 1
  43   22   23 ar
  44   22   59 1
  45   23   60 1
  46   24   25 1
  47   24   29 1
  48   25   26 1
  49   25   61 1
  50   25   62 1
  51   26   27 1
  52   26   63 1
  53   26   64 1
  54   27   28 1
  55   27   30 1
  56   27   65 1
  57   28   29 1
  58   28   66 1
  59   28   67 1
  60   29   68 1
  61   29   69 1
  62   30   31 1
  63   30   70 1
  64   30   71 1
  65   31   32 1
  66   31   72 1
  67   32   33 1
  68   32   36 2
  69   33   34 1
  70   33   73 1
  71   34   35 ar
  72   34   40 ar
  73   35   36 1
  74   35   37 ar
  75   37   38 ar
  76   37   74 1
  77   38   39 ar
  78   38   75 1
  79   39   40 ar
  80   39   76 1
  81   40   77 1

#	End of record

