#	Name: ASD07330018
#	Creating user name:	WinNT
#	Creation time:	15. 06. 2019 21:11

#	Modifying user name:	WinNT
#	Modification time:	15. 06. 2019 21:11

#	Program:	/corina/corina34_cracker 3.40 0067  02.08.2006

@<TRIPOS>MOLECULE
ASD07330018
  54   57    0    0    0
SMALL
NO_CHARGES


@<TRIPOS>ATOM
   1 C1             0.0754     1.1094    -0.8711 C.ar    
   2 C2             0.0873    -0.0612    -0.1272 C.ar    
   3 N3             1.2019    -0.5545     0.3697 N.ar    
   4 C4             2.3718     0.0479     0.1809 C.ar    
   5 C5             2.4324     1.2449    -0.5683 C.ar    
   6 C6             1.2617     1.7832    -1.1025 C.ar    
   7 N7             3.5203    -0.4591     0.6926 N.2     
   8 C8             4.6657     0.1262     0.5110 C.2     
   9 N9             4.8150     1.2776    -0.1946 N.am    
  10 C10            3.7420     1.8828    -0.7561 C.2     
  11 O11            3.8580     2.9145    -1.3918 O.2     
  12 C12            6.0892     1.8433    -0.3419 C.ar    
  13 C13            6.9238     1.4179    -1.3669 C.ar    
  14 C14            8.1783     1.9757    -1.5117 C.ar    
  15 C15            8.6053     2.9612    -0.6334 C.ar    
  16 C16            7.7719     3.3867     0.3910 C.ar    
  17 C17            6.5151     2.8333     0.5337 C.ar    
  18 C18            5.8935    -0.5050     1.1153 C.3     
  19 C19            6.0267    -0.0661     2.5750 C.3     
  20 N20            5.7734    -1.9677     1.0528 N.3     
  21 C21            7.0968    -2.6053     1.0579 C.3     
  22 C22            6.9335    -4.1020     0.9930 C.ar    
  23 C23            6.6796    -4.7183    -0.2191 C.ar    
  24 C24            6.5303    -6.0927    -0.2780 C.ar    
  25 C25            6.6349    -6.8488     0.8739 C.ar    
  26 C26            6.8887    -6.2323     2.0852 C.ar    
  27 C27            7.0431    -4.8600     2.1438 C.ar    
  28 Cl28           6.5477    -3.7677    -1.6658 Cl      
  29 O29            9.8409     3.5098    -0.7762 O.3     
  30 C30           11.6277     5.0136    -0.1546 C.3     
  31 C31           10.2152     4.5192     0.1635 C.3     
  32 H32           -0.8529     1.4901    -1.2707 H       
  33 H33           -0.8425    -0.5815     0.0492 H       
  34 H34            1.2806     2.6963    -1.6789 H       
  35 H35            6.5916     0.6506    -2.0505 H       
  36 H36            8.8277     1.6447    -2.3087 H       
  37 H37            8.1049     4.1536     1.0747 H       
  38 H38            5.8662     3.1649     1.3309 H       
  39 H39            6.7758    -0.1888     0.5589 H       
  40 H40            6.8865    -0.5613     3.0263 H       
  41 H41            6.1654     1.0141     2.6184 H       
  42 H42            5.1230    -0.3386     3.1202 H       
  43 H43            5.2012    -2.3161     1.8073 H       
  44 H44            7.6677    -2.2643     0.1943 H       
  45 H45            7.6258    -2.3369     1.9723 H       
  46 H46            6.3316    -6.5744    -1.2241 H       
  47 H47            6.5180    -7.9215     0.8281 H       
  48 H48            6.9700    -6.8236     2.9853 H       
  49 H49            7.2417    -4.3790     3.0902 H       
  50 H50           11.9132     5.7835     0.5622 H       
  51 H51           12.3274     4.1802    -0.0905 H       
  52 H52           11.6490     5.4292    -1.1620 H       
  53 H53            9.5155     5.3526     0.0994 H       
  54 H54           10.1939     4.1036     1.1709 H       
@<TRIPOS>BOND
   1    1    2 ar
   2    1    6 ar
   3    1   32 1
   4    2    3 ar
   5    2   33 1
   6    3    4 ar
   7    4    5 ar
   8    4    7 1
   9    5    6 ar
  10    5   10 1
  11    6   34 1
  12    7    8 2
  13    8    9 1
  14    8   18 1
  15    9   10 am
  16    9   12 1
  17   10   11 2
  18   12   13 ar
  19   12   17 ar
  20   13   14 ar
  21   13   35 1
  22   14   15 ar
  23   14   36 1
  24   15   16 ar
  25   15   29 1
  26   16   17 ar
  27   16   37 1
  28   17   38 1
  29   18   19 1
  30   18   20 1
  31   18   39 1
  32   19   40 1
  33   19   41 1
  34   19   42 1
  35   20   21 1
  36   20   43 1
  37   21   22 1
  38   21   44 1
  39   21   45 1
  40   22   23 ar
  41   22   27 ar
  42   23   24 ar
  43   23   28 1
  44   24   25 ar
  45   24   46 1
  46   25   26 ar
  47   25   47 1
  48   26   27 ar
  49   26   48 1
  50   27   49 1
  51   29   31 1
  52   30   31 1
  53   30   50 1
  54   30   51 1
  55   30   52 1
  56   31   53 1
  57   31   54 1

#	End of record

