#	Name: ASD01810434
#	Creating user name:	WinNT
#	Creation time:	15. 06. 2019 19:24

#	Modifying user name:	WinNT
#	Modification time:	15. 06. 2019 19:24

#	Program:	/corina/corina34_cracker 3.40 0067  02.08.2006

@<TRIPOS>MOLECULE
ASD01810434
  48   51    0    0    0
SMALL
NO_CHARGES


@<TRIPOS>ATOM
   1 C1            -0.0164     1.3577     0.0095 C.2     
   2 C2             0.0021    -0.0041     0.0020 C.2     
   3 N3             1.1270     2.0816     0.0025 N.pl3   
   4 C4             2.3474     1.5259    -0.0126 C.2     
   5 C5             2.5088     0.1550    -0.0219 C.2     
   6 C6             1.3028    -0.6883    -0.0141 C.2     
   7 O7             1.3795    -1.9061    -0.0221 O.2     
   8 C8             3.8511    -0.4471    -0.0389 C.2     
   9 C9             1.0266     3.5432     0.0113 C.3     
  10 C10            1.0058     4.0367     1.4350 C.ar    
  11 O11            4.8364     0.2645    -0.0449 O.2     
  12 O12            3.9882    -1.7880    -0.0479 O.3     
  13 C13            2.1928     4.3446     2.0750 C.ar    
  14 C14            2.1795     4.7970     3.3789 C.ar    
  15 C15            0.9675     4.9434     4.0505 C.ar    
  16 C16           -0.2252     4.6318     3.4009 C.ar    
  17 C17           -0.2006     4.1856     2.0951 C.ar    
  18 C18            0.9470     5.4289     5.4526 C.ar    
  19 C19           -0.2650     5.5753     6.1242 C.ar    
  20 C20           -0.2782     6.0273     7.4282 C.ar    
  21 C21            0.9087     6.3352     8.0682 C.ar    
  22 C22            2.1147     6.1922     7.4061 C.ar    
  23 C23            2.1401     5.7346     6.1042 C.ar    
  24 C24           -1.2620    -0.7793     0.0104 C.ar    
  25 C25           -1.6029    -1.5735    -1.0832 C.ar    
  26 C26           -2.7807    -2.2927    -1.0699 C.ar    
  27 C27           -3.6222    -2.2265     0.0260 C.ar    
  28 C28           -3.2893    -1.4397     1.1139 C.ar    
  29 C29           -2.1111    -0.7210     1.1143 C.ar    
  30 H30           -0.9660     1.8721     0.0168 H       
  31 H31            3.2198     2.1625    -0.0178 H       
  32 H32            1.8847     3.9694    -0.5085 H       
  33 H33            0.1090     3.8474    -0.4922 H       
  34 H34            4.8900    -2.1370    -0.0590 H       
  35 H35            3.1316     4.2304     1.5536 H       
  36 H36            3.1069     5.0367     3.8778 H       
  37 H37           -1.1674     4.7435     3.9169 H       
  38 H38           -1.1244     3.9438     1.5906 H       
  39 H39           -1.1924     5.3358     5.6252 H       
  40 H40           -1.2171     6.1412     7.9497 H       
  41 H41            0.8938     6.6889     9.0885 H       
  42 H42            3.0385     6.4343     7.9104 H       
  43 H43            3.0823     5.6230     5.5882 H       
  44 H44           -0.9468    -1.6256    -1.9395 H       
  45 H45           -3.0460    -2.9081    -1.9168 H       
  46 H46           -4.5429    -2.7911     0.0320 H       
  47 H47           -3.9503    -1.3915     1.9666 H       
  48 H48           -1.8499    -0.1107     1.9662 H       
@<TRIPOS>BOND
   1    1    2 2
   2    1    3 1
   3    1   30 1
   4    2   24 1
   5    2    6 1
   6    3    4 1
   7    3    9 1
   8    4    5 2
   9    4   31 1
  10    5    6 1
  11    5    8 1
  12    6    7 2
  13    8   11 2
  14    8   12 1
  15    9   10 1
  16    9   32 1
  17    9   33 1
  18   10   13 ar
  19   10   17 ar
  20   12   34 1
  21   13   14 ar
  22   13   35 1
  23   14   15 ar
  24   14   36 1
  25   15   16 ar
  26   15   18 1
  27   16   17 ar
  28   16   37 1
  29   17   38 1
  30   18   19 ar
  31   18   23 ar
  32   19   20 ar
  33   19   39 1
  34   20   21 ar
  35   20   40 1
  36   21   22 ar
  37   21   41 1
  38   22   23 ar
  39   22   42 1
  40   23   43 1
  41   24   25 ar
  42   24   29 ar
  43   25   26 ar
  44   25   44 1
  45   26   27 ar
  46   26   45 1
  47   27   28 ar
  48   27   46 1
  49   28   29 ar
  50   28   47 1
  51   29   48 1

#	End of record

