#	Name: ASD00490001
#	Creating user name:	WinNT
#	Creation time:	15. 06. 2019 18:36

#	Modifying user name:	WinNT
#	Modification time:	15. 06. 2019 18:36

#	Program:	/corina/corina34_cracker 3.40 0067  02.08.2006

@<TRIPOS>MOLECULE
ASD00490001
  34   35    0    0    0
SMALL
NO_CHARGES


@<TRIPOS>ATOM
   1 C1            -0.0173     1.4248     0.0099 C.3     
   2 C2             1.4181     1.9544    -0.0010 C.3     
   3 C3             1.4245     3.4933     0.1334 C.3     
   4 O4             1.6779     3.8766     1.4866 O.3     
   5 C5             2.5832     3.9454    -0.7833 C.3     
   6 O6             3.5875     4.6217    -0.0244 O.3     
   7 C7             3.1397     2.6261    -1.3632 C.3     
   8 O8             2.0408     1.6928    -1.2776 O.3     
   9 N9             3.5429     2.8126    -2.7592 N.am    
  10 C10            4.8391     2.6953    -3.0998 C.2     
  11 O11            5.6626     2.4350    -2.2439 O.2     
  12 N12            5.2372     2.8615    -4.3748 N.am    
  13 C13            4.3365     3.1500    -5.3358 C.2     
  14 O14            4.6958     3.3002    -6.4897 O.2     
  15 C15            2.9692     3.2763    -4.9911 C.2     
  16 C16            2.5968     3.0990    -3.7054 C.2     
  17 P17           -1.3361    -0.8992     0.0100 P.3     
  18 O18           -2.1802    -0.5144     1.1632 O.2     
  19 O19            0.0021    -0.0041     0.0020 O.3     
  20 O20           -0.9402    -2.4552     0.1302 O.3     
  21 O21           -2.1519    -0.6570    -1.3567 O.3     
  22 H22           -0.5275     1.7763     0.9067 H       
  23 H23           -0.5445     1.7859    -0.8732 H       
  24 H24            1.9953     1.5007     0.8047 H       
  25 H25            0.4780     3.9106    -0.2099 H       
  26 H26            1.6929     4.8331     1.6281 H       
  27 H27            2.2107     4.5884    -1.5807 H       
  28 H28            3.2755     5.4262     0.4121 H       
  29 H29            3.9826     2.2755    -0.7675 H       
  30 H30            6.1759     2.7737    -4.6031 H       
  31 H31            2.2333     3.5070    -5.7471 H       
  32 H32            1.5577     3.1867    -3.4244 H       
  33 H33           -1.6991    -3.0544     0.1408 H       
  34 H34           -1.6586    -0.8885    -2.1555 H       
@<TRIPOS>BOND
   1    1   19 1
   2    1    2 1
   3    1   22 1
   4    1   23 1
   5    2    3 1
   6    2    8 1
   7    2   24 1
   8    3    4 1
   9    3    5 1
  10    3   25 1
  11    4   26 1
  12    5    6 1
  13    5    7 1
  14    5   27 1
  15    6   28 1
  16    7    8 1
  17    7    9 1
  18    7   29 1
  19    9   10 am
  20    9   16 1
  21   10   11 2
  22   10   12 am
  23   12   13 am
  24   12   30 1
  25   13   14 2
  26   13   15 1
  27   15   16 2
  28   15   31 1
  29   16   32 1
  30   17   18 2
  31   17   19 1
  32   17   20 1
  33   17   21 1
  34   20   33 1
  35   21   34 1

#	End of record

