#	Name: ASD08070063
#	Creating user name:	WinNT
#	Creation time:	15. 06. 2019 21:14

#	Modifying user name:	WinNT
#	Modification time:	15. 06. 2019 21:14

#	Program:	/corina/corina34_cracker 3.40 0067  02.08.2006

@<TRIPOS>MOLECULE
ASD08070063
  44   44    0    0    0
SMALL
NO_CHARGES


@<TRIPOS>ATOM
   1 C1            -0.3737     1.4411    -0.3308 C.ar    
   2 C2            -0.2888     0.0758    -0.2398 C.ar    
   3 C3             0.7832     2.2162    -0.2949 C.ar    
   4 C4             2.0293     1.6068    -0.1670 C.ar    
   5 C5             2.1204     0.2420    -0.0760 C.ar    
   6 C6             0.9607    -0.5386    -0.1108 C.ar    
   7 C7             1.0553    -2.0070    -0.0127 C.2     
   8 O8             2.1425    -2.5402     0.0985 O.2     
   9 C9            -1.1943    -4.8521    -0.6098 C.3     
  10 C10            0.0307    -4.2169     0.0511 C.3     
  11 N11           -0.0633    -2.7581    -0.0464 N.am    
  12 C12            0.0850    -4.6209     1.5019 C.2     
  13 O13            0.0488    -3.7770     2.3658 O.2     
  14 S14            0.6701     3.9706    -0.4121 S.3     
  15 C15           -1.1960    -4.5227    -2.1039 C.3     
  16 O16            0.1734    -5.9184     1.8343 O.3     
  17 C17            0.0044    -5.1928    -2.7753 C.3     
  18 C18           -2.4890    -5.0388    -2.7385 C.3     
  19 C19            0.2214    -6.2341     3.2508 C.3     
  20 C20            2.4032     4.4983    -0.3190 C.3     
  21 C21            2.4773     6.0239    -0.4084 C.3     
  22 H22           -1.3382     1.9159    -0.4349 H       
  23 H23           -1.1862    -0.5246    -0.2673 H       
  24 H24            2.9246     2.2102    -0.1398 H       
  25 H25            3.0868    -0.2299     0.0228 H       
  26 H26           -1.1594    -5.9334    -0.4762 H       
  27 H27           -2.1005    -4.4582    -0.1498 H       
  28 H28            0.9341    -4.5574    -0.4550 H       
  29 H29           -0.9306    -2.3329    -0.1351 H       
  30 H30           -1.1314    -3.4429    -2.2380 H       
  31 H31           -0.0603    -6.2726    -2.6413 H       
  32 H32            0.0032    -4.9581    -3.8398 H       
  33 H33            0.9256    -4.8251    -2.3233 H       
  34 H34           -2.5124    -6.1271    -2.6816 H       
  35 H35           -3.3454    -4.6285    -2.2033 H       
  36 H36           -2.5304    -4.7286    -3.7825 H       
  37 H37            0.2922    -7.3141     3.3801 H       
  38 H38            1.0921    -5.7566     3.7002 H       
  39 H39           -0.6840    -5.8687     3.7354 H       
  40 H40            2.8331     4.1685     0.6268 H       
  41 H41            2.9618     4.0584    -1.1451 H       
  42 H42            2.0473     6.3537    -1.3542 H       
  43 H43            1.9186     6.4638     0.4177 H       
  44 H44            3.5186     6.3410    -0.3524 H       
@<TRIPOS>BOND
   1    1    2 ar
   2    1    3 ar
   3    1   22 1
   4    2    6 ar
   5    2   23 1
   6    3    4 ar
   7    3   14 1
   8    4    5 ar
   9    4   24 1
  10    5    6 ar
  11    5   25 1
  12    6    7 1
  13    7    8 2
  14    7   11 am
  15    9   15 1
  16    9   10 1
  17    9   26 1
  18    9   27 1
  19   10   12 1
  20   10   11 1
  21   10   28 1
  22   11   29 1
  23   12   13 2
  24   12   16 1
  25   14   20 1
  26   15   17 1
  27   15   18 1
  28   15   30 1
  29   16   19 1
  30   17   31 1
  31   17   32 1
  32   17   33 1
  33   18   34 1
  34   18   35 1
  35   18   36 1
  36   19   37 1
  37   19   38 1
  38   19   39 1
  39   20   21 1
  40   20   40 1
  41   20   41 1
  42   21   42 1
  43   21   43 1
  44   21   44 1

#	End of record

