#	Name: ASD03720008
#	Creating user name:	WinNT
#	Creation time:	15. 06. 2019 20:43

#	Modifying user name:	WinNT
#	Modification time:	15. 06. 2019 20:43

#	Program:	/corina/corina34_cracker 3.40 0067  02.08.2006

@<TRIPOS>MOLECULE
ASD03720008
  67   70    0    0    0
SMALL
NO_CHARGES


@<TRIPOS>ATOM
   1 C1             0.2926     0.8349     0.7717 C.3     
   2 C2             0.4727    -0.6678     0.9694 C.3     
   3 C3             1.3727    -0.9655     2.1629 C.3     
   4 C4             2.7087    -0.2334     2.0705 C.3     
   5 C5             2.4879     1.2708     1.8955 C.3     
   6 C6             1.6505     1.5280     0.6490 C.3     
   7 C7             3.5540    -0.8126     0.9402 C.3     
   8 C8             4.9007    -0.0807     0.8629 C.3     
   9 C9             4.6015     1.3962     0.5862 C.3     
  10 C10            3.8553     1.9671     1.7894 C.3     
  11 C11            5.8188     2.1797     0.2260 C.3     
  12 C12            6.1711     3.2707     1.2607 C.3     
  13 C13            5.0141     4.2198     1.4025 C.3     
  14 C14            3.7059     3.4738     1.7150 C.3     
  15 C15            7.1588     1.4368     0.1078 C.3     
  16 C16            8.1461     2.6322    -0.0432 C.3     
  17 C17            7.4753     3.8366     0.6692 C.3     
  18 O18            0.9778    -1.2711    -0.2185 O.3     
  19 C19            1.7670     1.8187     3.1341 C.3     
  20 H20            3.2506    -0.3891     3.0163 H       
  21 C21            6.5633     2.6870     2.6240 C.3     
  22 C22            7.2137     4.9600    -0.3257 C.3     
  23 C23            8.5470     5.5051    -0.8416 C.3     
  24 C24            8.2918     6.7379    -1.7111 C.3     
  25 C25            6.3945     4.4209    -1.5000 C.3     
  26 C26            9.6050     7.2748    -2.2192 C.2     
  27 O27           10.6389     6.7276    -1.9170 O.2     
  28 O28            9.6260     8.3609    -3.0077 O.3     
  29 H29           -0.2685     1.0019    -0.1570 H       
  30 H30           -0.2829     1.2553     1.5917 H       
  31 H31           -0.5196    -1.1044     1.1732 H       
  32 H32            0.8599    -0.7012     3.0885 H       
  33 H33            1.5696    -2.0466     2.1931 H       
  34 H34            2.1630     1.1463    -0.2350 H       
  35 H35            1.4900     2.6017     0.5270 H       
  36 H36            3.7328    -1.8722     1.1229 H       
  37 H37            3.0432    -0.6891    -0.0133 H       
  38 H38            5.4256    -0.1782     1.8091 H       
  39 H39            5.4951    -0.4928     0.0519 H       
  40 H40            3.9152     1.4240    -0.2822 H       
  41 H41            4.3732     1.6883     2.7124 H       
  42 H42            5.6325     2.6725    -0.7534 H       
  43 H43            5.2203     4.9349     2.2123 H       
  44 H44            4.8563     4.7981     0.4837 H       
  45 H45            2.9665     3.7296     0.9443 H       
  46 H46            3.3231     3.8578     2.6713 H       
  47 H47            7.3823     0.8406     0.9804 H       
  48 H48            7.1726     0.8235    -0.7957 H       
  49 H49            9.0935     2.3944     0.4354 H       
  50 H50            8.2949     2.8579    -1.0973 H       
  51 H51            8.1139     4.1871     1.4820 H       
  52 H52            0.4048    -1.1612    -0.9897 H       
  53 H53            2.3770     1.6378     4.0191 H       
  54 H54            1.6062     2.8904     3.0165 H       
  55 H55            0.8058     1.3173     3.2466 H       
  56 H56            7.3530     1.9479     2.4892 H       
  57 H57            6.9211     3.4869     3.2723 H       
  58 H58            5.6945     2.2116     3.0792 H       
  59 H59            6.6603     5.7597     0.1666 H       
  60 H60            9.1782     5.7808     0.0033 H       
  61 H61            9.0475     4.7396    -1.4345 H       
  62 H62            7.6606     6.4623    -2.5559 H       
  63 H63            7.7913     7.5034    -1.1181 H       
  64 H64            6.8660     3.5178    -1.8877 H       
  65 H65            5.3850     4.1871    -1.1618 H       
  66 H66            6.3489     5.1735    -2.2871 H       
  67 H67           10.4920     8.6681    -3.3088 H       
@<TRIPOS>BOND
   1    1    2 1
   2    1    6 1
   3    1   29 1
   4    1   30 1
   5    2    3 1
   6    2   18 1
   7    2   31 1
   8    3    4 1
   9    3   32 1
  10    3   33 1
  11    4    5 1
  12    4    7 1
  13    4   20 1
  14    5    6 1
  15    5   19 1
  16    5   10 1
  17    6   34 1
  18    6   35 1
  19    7    8 1
  20    7   36 1
  21    7   37 1
  22    8    9 1
  23    8   38 1
  24    8   39 1
  25    9   10 1
  26    9   11 1
  27    9   40 1
  28   10   14 1
  29   10   41 1
  30   11   12 1
  31   11   15 1
  32   11   42 1
  33   12   13 1
  34   12   21 1
  35   12   17 1
  36   13   14 1
  37   13   43 1
  38   13   44 1
  39   14   45 1
  40   14   46 1
  41   15   16 1
  42   15   47 1
  43   15   48 1
  44   16   17 1
  45   16   49 1
  46   16   50 1
  47   17   22 1
  48   17   51 1
  49   18   52 1
  50   19   53 1
  51   19   54 1
  52   19   55 1
  53   21   56 1
  54   21   57 1
  55   21   58 1
  56   22   23 1
  57   22   25 1
  58   22   59 1
  59   23   24 1
  60   23   60 1
  61   23   61 1
  62   24   26 1
  63   24   62 1
  64   24   63 1
  65   25   64 1
  66   25   65 1
  67   25   66 1
  68   26   27 2
  69   26   28 1
  70   28   67 1

#	End of record

