#	Name: ASD01812209
#	Creating user name:	WinNT
#	Creation time:	15. 06. 2019 19:28

#	Modifying user name:	WinNT
#	Modification time:	15. 06. 2019 19:28

#	Program:	/corina/corina34_cracker 3.40 0067  02.08.2006

@<TRIPOS>MOLECULE
ASD01812209
  62   68    0    0    0
SMALL
NO_CHARGES


@<TRIPOS>ATOM
   1 C1            -0.0168     1.3890     0.0097 C.ar    
   2 C2             0.0021    -0.0041     0.0020 C.ar    
   3 C3             1.1787    -0.6895    -0.0124 C.ar    
   4 C4             2.3941     0.0134    -0.0202 C.ar    
   5 C5             2.3756     1.4326    -0.0129 C.ar    
   6 C6             1.1407     2.1050     0.0025 C.ar    
   7 C7             3.6272    -0.6638    -0.0356 C.ar    
   8 C8             4.7900     0.0349    -0.0429 C.ar    
   9 C9             4.7883     1.4437    -0.0354 C.ar    
  10 C10            3.5863     2.1337    -0.0203 C.ar    
  11 C11            3.6564    -2.1705    -0.0434 C.3     
  12 C12            5.8879     2.4282    -0.0403 C.2     
  13 N13            5.3953     3.6786    -0.0291 N.am    
  14 C14            3.9299     3.6020    -0.0157 C.3     
  15 O15            7.0709     2.1479    -0.0522 O.2     
  16 C16            6.1525     4.8558    -0.0294 C.ar    
  17 C17            6.5179     5.4478    -1.2308 C.ar    
  18 C18            7.2649     6.6098    -1.2280 C.ar    
  19 C19            7.6494     7.1845    -0.0304 C.ar    
  20 C20            7.2885     6.5986     1.1689 C.ar    
  21 C21            6.5358     5.4383     1.1739 C.ar    
  22 N22            3.4122    -2.6580    -1.4074 N.3     
  23 C23            3.6660    -4.1022    -1.5039 C.3     
  24 C24            3.3248    -4.5843    -2.9159 C.3     
  25 N25            4.1352    -3.8436    -3.8928 N.3     
  26 C26            3.8814    -2.3994    -3.7963 C.3     
  27 C27            4.2226    -1.9173    -2.3843 C.3     
  28 C28            3.9027    -4.3076    -5.1913 C.ar    
  29 C29            2.9974    -5.3440    -5.4112 C.ar    
  30 F30            6.1826     4.8659     2.3455 F       
  31 C31            2.7619    -5.8056    -6.6691 C.ar    
  32 C32            3.4296    -5.2439    -7.7785 C.ar    
  33 C33            4.3372    -4.2035    -7.5532 C.ar    
  34 C34            4.5664    -3.7355    -6.2611 C.ar    
  35 N35            3.3231    -5.5696    -9.0820 N.2     
  36 C36            4.0322    -4.9192    -9.9262 C.2     
  37 S37            5.0079    -3.7086    -9.1054 S.3     
  38 H38           -0.9637     1.9083     0.0170 H       
  39 H39           -0.9306    -0.5486     0.0080 H       
  40 H40            1.1770    -1.7695    -0.0175 H       
  41 H41            1.1108     3.1846     0.0078 H       
  42 H42            5.7302    -0.4964    -0.0544 H       
  43 H43            4.6323    -2.5168     0.2969 H       
  44 H44            2.8828    -2.5524     0.6229 H       
  45 H45            3.5211     4.0854    -0.9031 H       
  46 H46            3.5379     4.0760     0.8842 H       
  47 H47            6.2187     5.0000    -2.1669 H       
  48 H48            7.5493     7.0700    -2.1627 H       
  49 H49            8.2334     8.0930    -0.0319 H       
  50 H50            7.5907     7.0498     2.1024 H       
  51 H51            4.7173    -4.3014    -1.2958 H       
  52 H52            3.0453    -4.6297    -0.7797 H       
  53 H53            3.5397    -5.6497    -2.9983 H       
  54 H54            2.2672    -4.4099    -3.1140 H       
  55 H55            4.5021    -1.8719    -4.5206 H       
  56 H56            2.8301    -2.2002    -4.0044 H       
  57 H57            4.0077    -0.8519    -2.3019 H       
  58 H58            5.2802    -2.0917    -2.1862 H       
  59 H59            2.4773    -5.7856    -4.5740 H       
  60 H60            2.0573    -6.6100    -6.8203 H       
  61 H61            5.2682    -2.9317    -6.0942 H       
  62 H62            4.0317    -5.0904   -10.9925 H       
@<TRIPOS>BOND
   1    1    2 ar
   2    1    6 ar
   3    1   38 1
   4    2    3 ar
   5    2   39 1
   6    3    4 ar
   7    3   40 1
   8    4    5 ar
   9    4    7 ar
  10    5    6 ar
  11    5   10 ar
  12    6   41 1
  13    7    8 ar
  14    7   11 1
  15    8    9 ar
  16    8   42 1
  17    9   10 ar
  18    9   12 1
  19   10   14 1
  20   11   22 1
  21   11   43 1
  22   11   44 1
  23   12   13 am
  24   12   15 2
  25   13   14 1
  26   13   16 1
  27   14   45 1
  28   14   46 1
  29   16   17 ar
  30   16   21 ar
  31   17   18 ar
  32   17   47 1
  33   18   19 ar
  34   18   48 1
  35   19   20 ar
  36   19   49 1
  37   20   21 ar
  38   20   50 1
  39   21   30 1
  40   22   23 1
  41   22   27 1
  42   23   24 1
  43   23   51 1
  44   23   52 1
  45   24   25 1
  46   24   53 1
  47   24   54 1
  48   25   26 1
  49   25   28 1
  50   26   27 1
  51   26   55 1
  52   26   56 1
  53   27   57 1
  54   27   58 1
  55   28   29 ar
  56   28   34 ar
  57   29   31 ar
  58   29   59 1
  59   31   32 ar
  60   31   60 1
  61   32   33 ar
  62   32   35 1
  63   33   34 ar
  64   33   37 1
  65   34   61 1
  66   35   36 2
  67   36   37 1
  68   36   62 1

#	End of record

