#	Name: ASD01810403
#	Creating user name:	WinNT
#	Creation time:	15. 06. 2019 19:24

#	Modifying user name:	WinNT
#	Modification time:	15. 06. 2019 19:24

#	Program:	/corina/corina34_cracker 3.40 0067  02.08.2006

@<TRIPOS>MOLECULE
ASD01810403
  52   55    0    0    0
SMALL
NO_CHARGES


@<TRIPOS>ATOM
   1 N1            -0.1569     1.1150    -0.0222 N.pl3   
   2 C2            -0.3762    -0.2008    -0.1295 C.2     
   3 C3             0.6879    -1.0793    -0.1834 C.2     
   4 C4             2.0435    -0.5177    -0.1219 C.2     
   5 C5             2.1885     0.8932    -0.0090 C.2     
   6 C6             3.5895     1.4426     0.0359 C.3     
   7 C7             3.5950     2.8684     0.5830 C.3     
   8 C8             2.5499     3.6810    -0.1914 C.3     
   9 C9             1.1647     3.1667     0.1916 C.3     
  10 C10            1.0912     1.6665     0.0453 C.2     
  11 C11            0.4707    -2.5301    -0.2983 C.2     
  12 O12           -0.6599    -2.9733    -0.3472 O.2     
  13 O13            1.5256    -3.3674    -0.3492 O.3     
  14 C14           -1.3153     2.0110     0.0191 C.3     
  15 C15           -1.8114     2.1256     1.4375 C.ar    
  16 C16           -1.4025     3.1837     2.2281 C.ar    
  17 C17           -1.8555     3.2915     3.5285 C.ar    
  18 C18           -2.7226     2.3362     4.0414 C.ar    
  19 C19           -3.1318     1.2751     3.2449 C.ar    
  20 C20           -2.6791     1.1754     1.9438 C.ar    
  21 N21           -3.1837     2.4425     5.3609 N.pl3   
  22 N22           -2.8537     3.4555     6.2705 N.2     
  23 C23           -3.4767     3.2139     7.3958 C.2     
  24 C24           -4.2230     2.0406     7.2401 C.2     
  25 C25           -4.0306     1.5886     5.9793 C.2     
  26 O26            3.0232    -1.2446    -0.1662 O.2     
  27 O27            4.3933     0.6130     0.8772 O.3     
  28 C28            1.2365    -4.7858    -0.4624 C.3     
  29 C29            2.5484    -5.5719    -0.5060 C.3     
  30 H30           -1.3877    -0.5766    -0.1736 H       
  31 H31            4.0072     1.4431    -0.9709 H       
  32 H32            3.3406     2.8568     1.6428 H       
  33 H33            4.5813     3.3114     0.4455 H       
  34 H34            2.6360     4.7355     0.0710 H       
  35 H35            2.7058     3.5544    -1.2627 H       
  36 H36            0.9552     3.4369     1.2266 H       
  37 H37            0.4191     3.6274    -0.4566 H       
  38 H38           -1.0254     2.9966    -0.3452 H       
  39 H39           -2.1081     1.6091    -0.6118 H       
  40 H40           -0.7279     3.9265     1.8286 H       
  41 H41           -1.5352     4.1178     4.1457 H       
  42 H42           -3.8062     0.5305     3.6412 H       
  43 H43           -3.0000     0.3523     1.3226 H       
  44 H44           -3.4234     3.8161     8.2907 H       
  45 H45           -4.8461     1.5795     7.9922 H       
  46 H46           -4.4722     0.7037     5.5454 H       
  47 H47            5.3119     0.9048     0.9554 H       
  48 H48            0.6491    -5.1067     0.3979 H       
  49 H49            0.6722    -4.9697    -1.3767 H       
  50 H50            2.3313    -6.6367    -0.5910 H       
  51 H51            3.1358    -5.2510    -1.3663 H       
  52 H52            3.1127    -5.3880     0.4082 H       
@<TRIPOS>BOND
   1    1    2 1
   2    1   10 1
   3    1   14 1
   4    2    3 2
   5    2   30 1
   6    3    4 1
   7    3   11 1
   8    4    5 1
   9    4   26 2
  10    5    6 1
  11    5   10 2
  12    6    7 1
  13    6   27 1
  14    6   31 1
  15    7    8 1
  16    7   32 1
  17    7   33 1
  18    8    9 1
  19    8   34 1
  20    8   35 1
  21    9   10 1
  22    9   36 1
  23    9   37 1
  24   11   12 2
  25   11   13 1
  26   13   28 1
  27   14   15 1
  28   14   38 1
  29   14   39 1
  30   15   16 ar
  31   15   20 ar
  32   16   17 ar
  33   16   40 1
  34   17   18 ar
  35   17   41 1
  36   18   19 ar
  37   18   21 1
  38   19   20 ar
  39   19   42 1
  40   20   43 1
  41   21   22 1
  42   21   25 1
  43   22   23 2
  44   23   24 1
  45   23   44 1
  46   24   25 2
  47   24   45 1
  48   25   46 1
  49   27   47 1
  50   28   29 1
  51   28   48 1
  52   28   49 1
  53   29   50 1
  54   29   51 1
  55   29   52 1

#	End of record

