#	Name: ASD01885895
#	Creating user name:	WinNT
#	Creation time:	15. 06. 2019 19:50

#	Modifying user name:	WinNT
#	Modification time:	15. 06. 2019 19:50

#	Program:	/corina/corina34_cracker 3.40 0067  02.08.2006

@<TRIPOS>MOLECULE
ASD01885895
  51   54    0    0    0
SMALL
NO_CHARGES


@<TRIPOS>ATOM
   1 C1            -0.0172     1.4135     0.0098 C.ar    
   2 C2             0.0021    -0.0041     0.0020 C.ar    
   3 C3            -1.2280    -0.7096     0.0099 C.ar    
   4 C4            -2.4021     0.0315     0.0251 C.ar    
   5 C5            -2.3347     1.4291     0.0320 C.ar    
   6 N6            -1.1793     2.0668     0.0299 N.ar    
   7 C7             1.2052     2.1128     0.0019 C.ar    
   8 C8             2.3774     1.4228    -0.0130 C.ar    
   9 C9             2.3912     0.0292    -0.0205 C.ar    
  10 C10            1.2285    -0.6812    -0.0128 C.ar    
  11 C11            3.6820     2.1772    -0.0219 C.3     
  12 C12           -3.5931     2.2133     0.0482 C.2     
  13 N13           -3.5477     3.5603     0.0551 N.am    
  14 O14           -4.6652     1.6416     0.0554 O.2     
  15 C15           -1.2593    -2.1895     0.0017 C.ar    
  16 C16            4.2626     2.2086     1.3933 C.3     
  17 O17            4.6025     1.5266    -0.9001 O.3     
  18 C18            5.5021     3.0657     1.4088 C.ar    
  19 C19           -2.0412    -2.8776     0.9306 C.ar    
  20 C20           -2.0680    -4.2556     0.9200 C.ar    
  21 C21           -1.3179    -4.9593    -0.0135 C.ar    
  22 C22           -0.5386    -4.2777    -0.9394 C.ar    
  23 C23           -0.5115    -2.8997    -0.9385 C.ar    
  24 C24            5.4122     4.4249     1.6685 C.ar    
  25 C25            6.5781     5.1745     1.6727 C.ar    
  26 C26            7.7843     4.5461     1.4194 C.ar    
  27 N27            7.8314     3.2498     1.1762 N.ar    
  28 C28            6.7426     2.5057     1.1701 C.ar    
  29 O29           -1.3463    -6.3173    -0.0207 O.3     
  30 Cl30           9.2521     5.4731     1.4210 Cl      
  31 C31           -0.5513    -6.9776    -1.0076 C.3     
  32 H32           -3.3601    -0.4670     0.0311 H       
  33 H33            1.2119     3.1928     0.0072 H       
  34 H34            3.3357    -0.4944    -0.0327 H       
  35 H35            1.2522    -1.7609    -0.0184 H       
  36 H36            3.5097     3.1968    -0.3666 H       
  37 H37           -2.6918     4.0167     0.0494 H       
  38 H38           -4.3709     4.0733     0.0657 H       
  39 H39            3.5249     2.6242     2.0796 H       
  40 H40            4.5176     1.1954     1.7040 H       
  41 H41            4.8028     0.6133    -0.6536 H       
  42 H42           -2.6244    -2.3311     1.6570 H       
  43 H43           -2.6725    -4.7888     1.6388 H       
  44 H44            0.0436    -4.8281    -1.6637 H       
  45 H45            0.0947    -2.3704    -1.6587 H       
  46 H46            4.4563     4.8885     1.8625 H       
  47 H47            6.5452     6.2357     1.8707 H       
  48 H48            6.8204     1.4478     0.9673 H       
  49 H49           -0.8787    -6.6725    -2.0015 H       
  50 H50            0.4958    -6.7072    -0.8711 H       
  51 H51           -0.6646    -8.0566    -0.9030 H       
@<TRIPOS>BOND
   1    1    2 ar
   2    1    7 ar
   3    1    6 ar
   4    2    3 ar
   5    2   10 ar
   6    3    4 ar
   7    3   15 1
   8    4    5 ar
   9    4   32 1
  10    5    6 ar
  11    5   12 1
  12    7    8 ar
  13    7   33 1
  14    8   11 1
  15    8    9 ar
  16    9   10 ar
  17    9   34 1
  18   10   35 1
  19   11   16 1
  20   11   17 1
  21   11   36 1
  22   12   13 am
  23   12   14 2
  24   13   37 1
  25   13   38 1
  26   15   19 ar
  27   15   23 ar
  28   16   18 1
  29   16   39 1
  30   16   40 1
  31   17   41 1
  32   18   24 ar
  33   18   28 ar
  34   19   20 ar
  35   19   42 1
  36   20   21 ar
  37   20   43 1
  38   21   22 ar
  39   21   29 1
  40   22   23 ar
  41   22   44 1
  42   23   45 1
  43   24   25 ar
  44   24   46 1
  45   25   26 ar
  46   25   47 1
  47   26   27 ar
  48   26   30 1
  49   27   28 ar
  50   28   48 1
  51   29   31 1
  52   31   49 1
  53   31   50 1
  54   31   51 1

#	End of record

