#	Name: ASD00120067
#	Creating user name:	WinNT
#	Creation time:	15. 06. 2019 18:31

#	Modifying user name:	WinNT
#	Modification time:	15. 06. 2019 18:31

#	Program:	/corina/corina34_cracker 3.40 0067  02.08.2006

@<TRIPOS>MOLECULE
ASD00120067
  63   65    0    0    0
SMALL
NO_CHARGES


@<TRIPOS>ATOM
   1 C1             1.3444     1.5429     0.4273 C.3     
   2 C2             1.3129     0.0134     0.4087 C.3     
   3 C3             1.7410    -0.4889    -0.9716 C.3     
   4 O4             1.7116    -1.9175    -0.9889 O.3     
   5 C5             2.0965    -2.4916    -2.2396 C.3     
   6 C6             2.7429    -3.8569    -1.9966 C.3     
   7 C7             3.1549    -4.4717    -3.3357 C.3     
   8 C8             1.9184    -4.6430    -4.2203 C.3     
   9 C9             1.2720    -3.2777    -4.4633 C.3     
  10 C10            0.8599    -2.6630    -3.1242 C.3     
  11 N11            2.3130    -5.2317    -5.5025 N.am    
  12 C12            1.7496    -6.5170    -5.9227 C.3     
  13 C13            3.1943    -4.5907    -6.2955 C.2     
  14 O14            3.5885    -3.4808    -5.9935 O.2     
  15 N15            3.6387    -5.1799    -7.4233 N.am    
  16 C16            4.4641    -4.4772    -8.2973 C.2     
  17 S17            5.1239    -5.1060    -9.8045 S.3     
  18 C18            5.9347    -3.5673   -10.0889 C.2     
  19 C19            5.6499    -2.7489    -9.0671 C.2     
  20 N20            4.8639    -3.2548    -8.1328 N.2     
  21 C21            1.1009    -6.3637    -7.2999 C.3     
  22 C22            0.5125    -7.7062    -7.7388 C.3     
  23 C23            1.6271    -8.7515    -7.8136 C.3     
  24 C24            2.2758    -8.9048    -6.4364 C.3     
  25 C25            2.8642    -7.5624    -5.9976 C.3     
  26 S26            6.9462    -3.1736   -11.4769 S.3     
  27 C27            6.9104    -4.7013   -12.4544 C.3     
  28 C28            7.7441    -4.5222   -13.6970 C.2     
  29 O29            8.3048    -3.4718   -13.9021 O.2     
  30 O30            7.8636    -5.5297   -14.5759 O.3     
  31 H31            2.3557     1.8882     0.2125 H       
  32 H32            0.6604     1.9296    -0.3282 H       
  33 H33            1.0395     1.9007     1.4107 H       
  34 H34            1.9969    -0.3733     1.1642 H       
  35 H35            0.3016    -0.3319     0.6235 H       
  36 H36            1.0570    -0.1022    -1.7271 H       
  37 H37            2.7523    -0.1436    -1.1864 H       
  38 H38            2.8105    -1.8349    -2.7365 H       
  39 H39            3.6238    -3.7349    -1.3665 H       
  40 H40            2.0288    -4.5137    -1.4997 H       
  41 H41            3.8690    -3.8149    -3.8326 H       
  42 H42            3.6154    -5.4443    -3.1626 H       
  43 H43            1.2044    -5.2998    -3.7234 H       
  44 H44            1.9860    -2.6209    -4.9602 H       
  45 H45            0.3911    -3.3998    -5.0935 H       
  46 H46            0.1459    -3.3198    -2.6273 H       
  47 H47            0.3994    -1.6903    -3.2973 H       
  48 H48            0.9984    -6.8379    -5.2010 H       
  49 H49            3.3834    -6.0935    -7.6261 H       
  50 H50            6.0343    -1.7411    -9.0123 H       
  51 H51            0.3068    -5.6190    -7.2466 H       
  52 H52            1.8520    -6.0429    -8.0217 H       
  53 H53           -0.2387    -8.0270    -7.0170 H       
  54 H54            0.0503    -7.5969    -8.7199 H       
  55 H55            1.2079    -9.7079    -8.1263 H       
  56 H56            2.3783    -8.4307    -8.5354 H       
  57 H57            1.5247    -9.2257    -5.7147 H       
  58 H58            3.0700    -9.6496    -6.4897 H       
  59 H59            3.6154    -7.2416    -6.7193 H       
  60 H60            3.3264    -7.6716    -5.0165 H       
  61 H61            7.3141    -5.5218   -11.8611 H       
  62 H62            5.8822    -4.9282   -12.7363 H       
  63 H63            8.4088    -5.3676   -15.3580 H       
@<TRIPOS>BOND
   1    1    2 1
   2    1   31 1
   3    1   32 1
   4    1   33 1
   5    2    3 1
   6    2   34 1
   7    2   35 1
   8    3    4 1
   9    3   36 1
  10    3   37 1
  11    4    5 1
  12    5    6 1
  13    5   10 1
  14    5   38 1
  15    6    7 1
  16    6   39 1
  17    6   40 1
  18    7    8 1
  19    7   41 1
  20    7   42 1
  21    8    9 1
  22    8   11 1
  23    8   43 1
  24    9   10 1
  25    9   44 1
  26    9   45 1
  27   10   46 1
  28   10   47 1
  29   11   12 1
  30   11   13 am
  31   12   21 1
  32   12   25 1
  33   12   48 1
  34   13   14 2
  35   13   15 am
  36   15   16 1
  37   15   49 1
  38   16   17 1
  39   16   20 2
  40   17   18 1
  41   18   19 2
  42   18   26 1
  43   19   20 1
  44   19   50 1
  45   21   22 1
  46   21   51 1
  47   21   52 1
  48   22   23 1
  49   22   53 1
  50   22   54 1
  51   23   24 1
  52   23   55 1
  53   23   56 1
  54   24   25 1
  55   24   57 1
  56   24   58 1
  57   25   59 1
  58   25   60 1
  59   26   27 1
  60   27   28 1
  61   27   61 1
  62   27   62 1
  63   28   29 2
  64   28   30 1
  65   30   63 1

#	End of record

