#	Name: ASD01884310
#	Creating user name:	WinNT
#	Creation time:	15. 06. 2019 19:47

#	Modifying user name:	WinNT
#	Modification time:	15. 06. 2019 19:47

#	Program:	/corina/corina34_cracker 3.40 0067  02.08.2006

@<TRIPOS>MOLECULE
ASD01884310
  30   31    0    0    0
SMALL
NO_CHARGES


@<TRIPOS>ATOM
   1 C1             0.2309     0.8767    -0.2933 C.ar    
   2 C2            -0.0422    -0.3905    -0.8169 C.ar    
   3 C3            -1.3076    -0.9209    -0.7059 C.ar    
   4 C4            -2.3136    -0.1981    -0.0744 C.ar    
   5 C5            -2.0462     1.0626     0.4478 C.ar    
   6 C6            -0.7819     1.5978     0.3460 C.ar    
   7 O7            -3.5597    -0.7240     0.0322 O.3     
   8 C8            -3.8371    -1.4932     1.1185 C.ar    
   9 C9            -2.8967    -1.6313     2.1290 C.ar    
  10 C10           -5.0627    -2.1353     1.2191 C.ar    
  11 C11           -5.3444    -2.9167     2.3226 C.ar    
  12 C12           -4.4021    -3.0590     3.3304 C.ar    
  13 C13           -3.1786    -2.4128     3.2324 C.ar    
  14 O14           -4.6798    -3.8276     4.4172 O.3     
  15 C15            1.5852     1.4486    -0.4096 C.2     
  16 O16            1.8464     2.6701     0.0958 O.3     
  17 C17            3.2013     3.1699    -0.0549 C.3     
  18 O18            2.4655     0.8183    -0.9611 O.2     
  19 H19            0.7385    -0.9523    -1.3082 H       
  20 H20           -1.5194    -1.8998    -1.1101 H       
  21 H21           -2.8303     1.6209     0.9376 H       
  22 H22           -0.5749     2.5770     0.7518 H       
  23 H23           -1.9442    -1.1282     2.0527 H       
  24 H24           -5.7967    -2.0239     0.4347 H       
  25 H25           -6.2985    -3.4166     2.4009 H       
  26 H26           -2.4448    -2.5239     4.0170 H       
  27 H27           -4.4249    -4.7551     4.3185 H       
  28 H28            3.8958     2.4926     0.4422 H       
  29 H29            3.4499     3.2319    -1.1144 H       
  30 H30            3.2753     4.1602     0.3943 H       
@<TRIPOS>BOND
   1    1    2 ar
   2    1   15 1
   3    1    6 ar
   4    2    3 ar
   5    2   19 1
   6    3    4 ar
   7    3   20 1
   8    4    5 ar
   9    4    7 1
  10    5    6 ar
  11    5   21 1
  12    6   22 1
  13    7    8 1
  14    8    9 ar
  15    8   10 ar
  16    9   13 ar
  17    9   23 1
  18   10   11 ar
  19   10   24 1
  20   11   12 ar
  21   11   25 1
  22   12   13 ar
  23   12   14 1
  24   13   26 1
  25   14   27 1
  26   15   16 1
  27   15   18 2
  28   16   17 1
  29   17   28 1
  30   17   29 1
  31   17   30 1

#	End of record

