#	Name: ASD01150605
#	Creating user name:	WinNT
#	Creation time:	15. 06. 2019 19:04

#	Modifying user name:	WinNT
#	Modification time:	15. 06. 2019 19:04

#	Program:	/corina/corina34_cracker 3.40 0067  02.08.2006

@<TRIPOS>MOLECULE
ASD01150605
  48   50    0    0    0
SMALL
NO_CHARGES


@<TRIPOS>ATOM
   1 C1             0.4933     1.3919    -0.9465 C.ar    
   2 C2             0.4639     0.0109    -0.9224 C.ar    
   3 C3             1.9479     0.0102     0.9677 C.ar    
   4 C4             1.9789     1.3966     0.9446 C.ar    
   5 C5             1.2509     2.0887    -0.0132 C.ar    
   6 N6             1.2801     3.4880    -0.0392 N.am    
   7 C7             0.1264     4.1736    -0.1217 C.2     
   8 N8             0.1177     5.5194    -0.1489 N.am    
   9 C9             1.2790     6.2039    -0.0930 C.2     
  10 C10            2.5443     5.4601    -0.0027 C.2     
  11 N11            2.5098     4.1538     0.0269 N.2     
  12 O12            1.2793     7.4207    -0.1175 O.2     
  13 C13           -1.1538     6.2413    -0.2397 C.3     
  14 O14           -0.9269     3.5677    -0.1731 O.2     
  15 C15           -1.6831     6.5211     1.1683 C.3     
  16 O16            3.7301     6.1204     0.0551 O.3     
  17 C17            4.9130     5.3233     0.1416 C.3     
  18 C18            1.1883    -0.6824     0.0308 C.ar    
  19 C19           -2.9911     7.2638     1.0749 C.ar    
  20 N20            2.6816    -0.6915     1.9324 N.am    
  21 C21            2.9446    -0.1217     3.1251 C.2     
  22 O22            2.6215     1.0289     3.3320 O.2     
  23 C23            3.6402    -0.9142     4.2018 C.3     
  24 F24            1.1574    -2.0329     0.0519 F       
  25 C25           -4.1744     6.5635     0.9129 C.ar    
  26 C26           -5.3758     7.2460     0.8271 C.ar    
  27 C27           -5.3925     8.6278     0.9035 C.ar    
  28 C28           -4.2076     9.3262     1.0656 C.ar    
  29 C29           -3.0095     8.6435     1.1568 C.ar    
  30 F30           -4.1566     5.2147     0.8381 F       
  31 F31           -6.5641     9.2951     0.8195 F       
  32 H32           -0.0696     1.9304    -1.6945 H       
  33 H33           -0.1260    -0.5284    -1.6487 H       
  34 H34            2.5683     1.9367     1.6708 H       
  35 H35           -0.9995     7.1844    -0.7639 H       
  36 H36           -1.8771     5.6360    -0.7861 H       
  37 H37           -1.8374     5.5780     1.6926 H       
  38 H38           -0.9598     7.1265     1.7147 H       
  39 H39            5.7871     5.9733     0.1810 H       
  40 H40            4.8740     4.7118     1.0432 H       
  41 H41            4.9802     4.6767    -0.7333 H       
  42 H42            3.0005    -1.5876     1.7421 H       
  43 H43            3.8502    -1.9190     3.8351 H       
  44 H44            4.5754    -0.4220     4.4685 H       
  45 H45            2.9981    -0.9749     5.0805 H       
  46 H46           -6.2993     6.7006     0.7004 H       
  47 H47           -4.2203    10.4045     1.1249 H       
  48 H48           -2.0860     9.1890     1.2831 H       
@<TRIPOS>BOND
   1    1    2 ar
   2    1    5 ar
   3    1   32 1
   4    2   18 ar
   5    2   33 1
   6    3    4 ar
   7    3   20 1
   8    3   18 ar
   9    4    5 ar
  10    4   34 1
  11    5    6 1
  12    6    7 am
  13    6   11 1
  14    7    8 am
  15    7   14 2
  16    8    9 am
  17    8   13 1
  18    9   10 1
  19    9   12 2
  20   10   11 2
  21   10   16 1
  22   13   15 1
  23   13   35 1
  24   13   36 1
  25   15   19 1
  26   15   37 1
  27   15   38 1
  28   16   17 1
  29   17   39 1
  30   17   40 1
  31   17   41 1
  32   18   24 1
  33   19   25 ar
  34   19   29 ar
  35   20   21 am
  36   20   42 1
  37   21   22 2
  38   21   23 1
  39   23   43 1
  40   23   44 1
  41   23   45 1
  42   25   26 ar
  43   25   30 1
  44   26   27 ar
  45   26   46 1
  46   27   28 ar
  47   27   31 1
  48   28   29 ar
  49   28   47 1
  50   29   48 1

#	End of record

