#	Name: ASD01915936
#	Creating user name:	WinNT
#	Creation time:	15. 06. 2019 20:06

#	Modifying user name:	WinNT
#	Modification time:	15. 06. 2019 20:06

#	Program:	/corina/corina34_cracker 3.40 0067  02.08.2006

@<TRIPOS>MOLECULE
ASD01915936
  44   47    0    0    0
SMALL
NO_CHARGES


@<TRIPOS>ATOM
   1 C1            -0.0165     1.3676     0.0096 C.2     
   2 C2             0.0021    -0.0041     0.0020 C.2     
   3 C3            -1.3057    -0.7789    -0.0019 C.3     
   4 C4            -2.3695     0.0449     0.7209 C.3     
   5 N5            -2.4035     1.4320     0.2718 N.am    
   6 C6            -1.2693     2.1314     0.0352 C.2     
   7 O7            -1.2874     3.3345    -0.1474 O.2     
   8 S8             1.6349     1.9480    -0.0031 S.3     
   9 C9             2.2074     0.3355    -0.0093 C.2     
  10 N10            1.2152    -0.4964    -0.0049 N.2     
  11 O11            4.1127    -0.1830    -1.3693 O.3     
  12 C12            5.4121    -0.5368    -1.5560 C.ar    
  13 C13            6.2346    -0.7613    -0.4631 C.ar    
  14 C14            5.9165    -0.6797    -2.8428 C.ar    
  15 C15            7.2387    -1.0397    -3.0291 C.ar    
  16 C16            8.0572    -1.2576    -1.9358 C.ar    
  17 C17            7.5554    -1.1209    -0.6552 C.ar    
  18 C18            3.6614    -0.0605    -0.0190 C.3     
  19 F19            5.1163    -0.4676    -3.9105 F       
  20 C20           -3.6423     2.0566     0.0803 C.ar    
  21 C21           -4.2702     1.9966    -1.1619 C.ar    
  22 C22           -5.4956     2.6164    -1.3455 C.ar    
  23 C23           -6.0926     3.2924    -0.2976 C.ar    
  24 C24           -5.4699     3.3525     0.9356 C.ar    
  25 C25           -4.2502     2.7321     1.1286 C.ar    
  26 O26           -3.6817     1.3317    -2.1917 O.3     
  27 C27           -4.3833     1.3117    -3.4365 C.3     
  28 H28           -1.6199    -0.9598    -1.0299 H       
  29 H29           -1.1683    -1.7300     0.5126 H       
  30 H30           -3.3455    -0.4069     0.5442 H       
  31 H31           -2.1631     0.0259     1.7910 H       
  32 H32            5.8438    -0.6549     0.5381 H       
  33 H33            7.6321    -1.1511    -4.0287 H       
  34 H34            9.0895    -1.5390    -2.0830 H       
  35 H35            8.1971    -1.2918     0.1965 H       
  36 H36            4.2489     0.7016     0.4929 H       
  37 H37            3.7811    -1.0158     0.4922 H       
  38 H38           -5.9845     2.5718    -2.3075 H       
  39 H39           -7.0476     3.7753    -0.4427 H       
  40 H40           -5.9400     3.8820     1.7511 H       
  41 H41           -3.7663     2.7803     2.0930 H       
  42 H42           -3.8054     0.7500    -4.1703 H       
  43 H43           -5.3547     0.8370    -3.2984 H       
  44 H44           -4.5250     2.3330    -3.7901 H       
@<TRIPOS>BOND
   1    1    2 2
   2    1    8 1
   3    1    6 1
   4    2    3 1
   5    2   10 1
   6    3    4 1
   7    3   28 1
   8    3   29 1
   9    4    5 1
  10    4   30 1
  11    4   31 1
  12    5    6 am
  13    5   20 1
  14    6    7 2
  15    8    9 1
  16    9   10 2
  17    9   18 1
  18   11   12 1
  19   11   18 1
  20   12   13 ar
  21   12   14 ar
  22   13   17 ar
  23   13   32 1
  24   14   15 ar
  25   14   19 1
  26   15   16 ar
  27   15   33 1
  28   16   17 ar
  29   16   34 1
  30   17   35 1
  31   18   36 1
  32   18   37 1
  33   20   21 ar
  34   20   25 ar
  35   21   22 ar
  36   21   26 1
  37   22   23 ar
  38   22   38 1
  39   23   24 ar
  40   23   39 1
  41   24   25 ar
  42   24   40 1
  43   25   41 1
  44   26   27 1
  45   27   42 1
  46   27   43 1
  47   27   44 1

#	End of record

