#	Name: ASD01901173
#	Creating user name:	WinNT
#	Creation time:	15. 06. 2019 19:53

#	Modifying user name:	WinNT
#	Modification time:	15. 06. 2019 19:53

#	Program:	/corina/corina34_cracker 3.40 0067  02.08.2006

@<TRIPOS>MOLECULE
ASD01901173
  51   54    0    0    0
SMALL
NO_CHARGES


@<TRIPOS>ATOM
   1 C1            -0.0156     1.3123     0.0105 C.ar    
   2 N2             0.0023    -0.0041     0.0034 N.ar    
   3 C3             1.1319    -0.6859    -0.0110 C.ar    
   4 C4             2.3559    -0.0416    -0.0194 C.ar    
   5 C5             2.3937     1.3415    -0.0125 C.ar    
   6 C6             1.1783     2.0387     0.0029 C.ar    
   7 C7             1.1599     3.4705     0.0102 C.1     
   8 C8             1.1449     4.6444     0.0162 C.1     
   9 C9             1.1265     6.0763     0.0235 C.ar    
  10 C10            2.3269     6.7924     0.0158 C.ar    
  11 C11            2.3054     8.1722     0.0229 C.ar    
  12 C12            1.0909     8.8505     0.0382 C.ar    
  13 C13           -0.1059     8.1411     0.0458 C.ar    
  14 C14           -0.0920     6.7612     0.0325 C.ar    
  15 N15            1.0729    10.2529     0.0463 N.am    
  16 C16            1.0534    10.9211    -1.1190 C.2     
  17 N17            0.7973    12.2383    -1.1702 N.am    
  18 C18            0.4069    12.9763     0.0326 C.3     
  19 C19            1.1563    12.4146     1.2429 C.3     
  20 C20            1.0698    10.9088     1.2212 C.2     
  21 O21            1.2733    10.3191    -2.1516 O.2     
  22 O22            1.0013    10.2896     2.2613 O.2     
  23 C23            0.9105    12.9470    -2.4473 C.3     
  24 C24            0.7591    14.4547    -0.1440 C.3     
  25 C25           -1.0775    12.8367     0.2520 C.ar    
  26 F26            3.4652     8.8651     0.0155 F       
  27 C27           -1.6621    13.3722     1.3844 C.ar    
  28 C28           -1.8551    12.1783    -0.6820 C.ar    
  29 C29           -3.2172    12.0506    -0.4818 C.ar    
  30 C30           -3.8020    12.5813     0.6522 C.ar    
  31 C31           -3.0247    13.2444     1.5854 C.ar    
  32 F32           -1.2830     8.8039     0.0611 F       
  33 Cl33          -3.7596    13.9172     3.0071 Cl      
  34 H34           -0.9606     1.8351     0.0177 H       
  35 H35            1.1002    -1.7654    -0.0161 H       
  36 H36            3.2727    -0.6123    -0.0308 H       
  37 H37            3.3356     1.8699    -0.0183 H       
  38 H38            3.2701     6.2664     0.0047 H       
  39 H39           -1.0214     6.2112     0.0339 H       
  40 H40            2.2007    12.7235     1.2002 H       
  41 H41            0.7016    12.7906     2.1595 H       
  42 H42            1.2089    12.2458    -3.2267 H       
  43 H43           -0.0524    13.3881    -2.7047 H       
  44 H44            1.6593    13.7343    -2.3608 H       
  45 H45            1.8328    14.5560    -0.3023 H       
  46 H46            0.2254    14.8549    -1.0060 H       
  47 H47            0.4701    15.0064     0.7505 H       
  48 H48           -1.0550    13.8900     2.1122 H       
  49 H49           -1.3986    11.7636    -1.5686 H       
  50 H50           -3.8244    11.5363    -1.2121 H       
  51 H51           -4.8661    12.4822     0.8081 H       
@<TRIPOS>BOND
   1    1    2 ar
   2    1    6 ar
   3    1   34 1
   4    2    3 ar
   5    3    4 ar
   6    3   35 1
   7    4    5 ar
   8    4   36 1
   9    5    6 ar
  10    5   37 1
  11    6    7 1
  12    7    8 3
  13    8    9 1
  14    9   10 ar
  15    9   14 ar
  16   10   11 ar
  17   10   38 1
  18   11   12 ar
  19   11   26 1
  20   12   13 ar
  21   12   15 1
  22   13   14 ar
  23   13   32 1
  24   14   39 1
  25   15   16 am
  26   15   20 am
  27   16   17 am
  28   16   21 2
  29   17   23 1
  30   17   18 1
  31   18   19 1
  32   18   24 1
  33   18   25 1
  34   19   20 1
  35   19   40 1
  36   19   41 1
  37   20   22 2
  38   23   42 1
  39   23   43 1
  40   23   44 1
  41   24   45 1
  42   24   46 1
  43   24   47 1
  44   25   28 ar
  45   25   27 ar
  46   27   31 ar
  47   27   48 1
  48   28   29 ar
  49   28   49 1
  50   29   30 ar
  51   29   50 1
  52   30   31 ar
  53   30   51 1
  54   31   33 1

#	End of record

