#	Name: ASD01940294
#	Creating user name:	WinNT
#	Creation time:	15. 06. 2019 20:12

#	Modifying user name:	WinNT
#	Modification time:	15. 06. 2019 20:12

#	Program:	/corina/corina34_cracker 3.40 0067  02.08.2006

@<TRIPOS>MOLECULE
ASD01940294
  47   49    0    0    0
SMALL
NO_CHARGES


@<TRIPOS>ATOM
   1 C1             0.4364     2.2761    -2.5157 C.3     
   2 C2            -0.0450     3.0897    -3.7187 C.3     
   3 C3             1.1509     3.5742    -2.8966 C.3     
   4 S4            -0.5963     2.2949    -1.0245 S.o2    
   5 O5            -1.8792     1.7493    -1.2994 O.2     
   6 O6             0.1529     1.8714     0.1062 O.2     
   7 N7            -0.8871     3.9008    -0.7435 N.am    
   8 C8             0.1487     4.7329    -0.2923 C.ar    
   9 C9            -0.1300     6.0359     0.1156 C.ar    
  10 C10            0.8987     6.8554     0.5612 C.ar    
  11 C11            2.1984     6.3765     0.5994 C.ar    
  12 C12            2.4743     5.0818     0.1940 C.ar    
  13 C13            1.4522     4.2580    -0.2460 C.ar    
  14 N14           -1.4454     6.5184     0.0757 N.pl3   
  15 C15           -1.6855     7.8960     0.0854 C.ar    
  16 C16           -1.2854     8.6812    -0.9914 C.ar    
  17 C17           -1.5250    10.0425    -0.9780 C.ar    
  18 C18           -2.1614    10.6233     0.1049 C.ar    
  19 C19           -2.5599     9.8448     1.1761 C.ar    
  20 C20           -2.3286     8.4825     1.1668 C.ar    
  21 I21           -2.5215    12.6871     0.1218 I       
  22 F22           -0.6633     8.1141    -2.0481 F       
  23 F23            1.7244     2.9933    -0.6356 F       
  24 F24            3.1986     7.1747     1.0327 F       
  25 F25            0.6324     8.1194     0.9571 F       
  26 C26            1.1639     0.9601    -2.7984 C.3     
  27 C27            1.6833     0.3722    -1.4849 C.3     
  28 C28            2.2006    -1.0466    -1.7304 C.3     
  29 O29            2.5777    -1.6383    -0.4855 O.3     
  30 O30            2.7459     1.1869    -0.9856 O.3     
  31 H31            0.1565     2.6875    -4.7115 H       
  32 H32           -0.9822     3.6363    -3.6141 H       
  33 H33            1.0005     4.4396    -2.2512 H       
  34 H34            2.1393     3.4908    -3.3486 H       
  35 H35           -1.7735     4.2662    -0.8908 H       
  36 H36            3.4886     4.7121     0.2251 H       
  37 H37           -2.1892     5.8967     0.0413 H       
  38 H38           -1.2151    10.6532    -1.8131 H       
  39 H39           -3.0563    10.3016     2.0195 H       
  40 H40           -2.6444     7.8751     2.0021 H       
  41 H41            0.4739     0.2562    -3.2638 H       
  42 H42            2.0020     1.1453    -3.4702 H       
  43 H43            0.8743     0.3427    -0.7549 H       
  44 H44            1.4158    -1.6444    -2.1939 H       
  45 H45            3.0664    -1.0083    -2.3916 H       
  46 H46            2.9159    -2.5407    -0.5654 H       
  47 H47            3.5015     1.2584    -1.5848 H       
@<TRIPOS>BOND
   1    1    2 1
   2    1    3 1
   3    1    4 1
   4    1   26 1
   5    2    3 1
   6    2   31 1
   7    2   32 1
   8    3   33 1
   9    3   34 1
  10    4    5 2
  11    4    6 2
  12    4    7 am
  13    7    8 1
  14    7   35 1
  15    8    9 ar
  16    8   13 ar
  17    9   10 ar
  18    9   14 1
  19   10   11 ar
  20   10   25 1
  21   11   12 ar
  22   11   24 1
  23   12   13 ar
  24   12   36 1
  25   13   23 1
  26   14   15 1
  27   14   37 1
  28   15   16 ar
  29   15   20 ar
  30   16   17 ar
  31   16   22 1
  32   17   18 ar
  33   17   38 1
  34   18   19 ar
  35   18   21 1
  36   19   20 ar
  37   19   39 1
  38   20   40 1
  39   26   27 1
  40   26   41 1
  41   26   42 1
  42   27   28 1
  43   27   30 1
  44   27   43 1
  45   28   29 1
  46   28   44 1
  47   28   45 1
  48   29   46 1
  49   30   47 1

#	End of record

