#	Name: ASD02039341
#	Creating user name:	WinNT
#	Creation time:	15. 06. 2019 20:18

#	Modifying user name:	WinNT
#	Modification time:	15. 06. 2019 20:18

#	Program:	/corina/corina34_cracker 3.40 0067  02.08.2006

@<TRIPOS>MOLECULE
ASD02039341
  45   47    0    0    0
SMALL
NO_CHARGES


@<TRIPOS>ATOM
   1 C1             0.1312     1.1809    -0.3274 C.ar    
   2 C2             0.5091    -0.0980     0.0369 C.ar    
   3 C3            -0.3991    -1.1382    -0.0370 C.ar    
   4 C4            -2.0740     0.3866    -0.8320 C.ar    
   5 C5            -1.1576     1.4257    -0.7615 C.ar    
   6 N6            -3.3832     0.6324    -1.2729 N.pl3   
   7 C7             1.1247     2.3110    -0.2451 C.3     
   8 N8             1.9435     2.3309    -1.4597 N.am    
   9 C9             1.4536     3.0092    -2.6623 C.3     
  10 C10            3.1474     1.7252    -1.4709 C.2     
  11 C11            3.5952     0.9546    -0.2978 C.2     
  12 C12            4.7268     0.1971    -0.2146 C.2     
  13 N13            2.9600     0.8737     0.8993 N.2     
  14 C14            3.6498     0.1040     1.6906 C.2     
  15 N15            4.7536    -0.3336     1.0305 N.pl3   
  16 O16            3.8642     1.8148    -2.4494 O.2     
  17 C17            5.7871    -1.2212     1.5692 C.3     
  18 C18           -4.0632    -0.0663    -2.2365 C.2     
  19 C19           -1.6889    -0.9012    -0.4760 C.ar    
  20 C20            2.4396     4.1073    -3.0659 C.3     
  21 C21            1.3236     1.9966    -3.8018 C.3     
  22 F22           -2.5764    -1.9172    -0.5488 F       
  23 C23           -4.2181     1.6038    -0.8215 C.2     
  24 N24           -5.3473     1.5160    -1.4703 N.2     
  25 C25           -5.2799     0.5008    -2.3441 C.2     
  26 H26            1.5160    -0.2852     0.3797 H       
  27 H27           -0.1009    -2.1363     0.2480 H       
  28 H28           -1.4538     2.4270    -1.0374 H       
  29 H29            0.5918     3.2571    -0.1506 H       
  30 H30            1.7671     2.1675     0.6238 H       
  31 H31            0.4793     3.4531    -2.4577 H       
  32 H32            5.4605     0.0489    -0.9931 H       
  33 H33            3.3885    -0.1442     2.7087 H       
  34 H34            5.5179    -2.2577     1.3659 H       
  35 H35            6.7429    -0.9947     1.0967 H       
  36 H36            5.8695    -1.0717     2.6457 H       
  37 H37           -3.6939    -0.9096    -2.8013 H       
  38 H38            3.4296     3.6732    -3.2057 H       
  39 H39            2.1098     4.5675    -3.9973 H       
  40 H40            2.4820     4.8636    -2.2821 H       
  41 H41            0.5874     1.2392    -3.5326 H       
  42 H42            1.0025     2.5092    -4.7086 H       
  43 H43            2.2882     1.5199    -3.9761 H       
  44 H44           -3.9866     2.3275    -0.0539 H       
  45 H45           -6.0655     0.1915    -3.0176 H       
@<TRIPOS>BOND
   1    1    2 ar
   2    1    7 1
   3    1    5 ar
   4    2    3 ar
   5    2   26 1
   6    3   19 ar
   7    3   27 1
   8    4    5 ar
   9    4    6 1
  10    4   19 ar
  11    5   28 1
  12    6   18 1
  13    6   23 1
  14    7    8 1
  15    7   29 1
  16    7   30 1
  17    8    9 1
  18    8   10 am
  19    9   21 1
  20    9   20 1
  21    9   31 1
  22   10   11 1
  23   10   16 2
  24   11   12 2
  25   11   13 1
  26   12   15 1
  27   12   32 1
  28   13   14 2
  29   14   15 1
  30   14   33 1
  31   15   17 1
  32   17   34 1
  33   17   35 1
  34   17   36 1
  35   18   25 2
  36   18   37 1
  37   19   22 1
  38   20   38 1
  39   20   39 1
  40   20   40 1
  41   21   41 1
  42   21   42 1
  43   21   43 1
  44   23   24 2
  45   23   44 1
  46   24   25 1
  47   25   45 1

#	End of record

