#	Name: ASD02030629
#	Creating user name:	WinNT
#	Creation time:	15. 06. 2019 20:15

#	Modifying user name:	WinNT
#	Modification time:	15. 06. 2019 20:15

#	Program:	/corina/corina34_cracker 3.40 0067  02.08.2006

@<TRIPOS>MOLECULE
ASD02030629
  64   67    0    0    0
SMALL
NO_CHARGES


@<TRIPOS>ATOM
   1 C1             0.1605     1.1518    -0.0920 C.ar    
   2 C2             0.0192    -0.2196    -0.0961 C.ar    
   3 C3             1.1465    -1.0258    -0.1652 C.ar    
   4 C4             2.4019    -0.4460    -0.2237 C.ar    
   5 C5             2.5422     0.9358    -0.2131 C.ar    
   6 C6             1.4204     1.7325    -0.1563 C.ar    
   7 C7             1.4994     3.2386    -0.1750 C.3     
   8 C8             3.9402     1.4949    -0.2502 C.3     
   9 C9             3.9325     2.9483    -0.7213 C.3     
  10 N10            2.8883     3.6632     0.0297 N.am    
  11 C11            1.0022     3.7577    -1.5257 C.3     
  12 O12            1.7426     3.1347    -2.5772 O.3     
  13 C13            1.4228     3.4884    -3.8508 C.ar    
  14 C14            3.1966     4.6683     0.8729 C.2     
  15 O15            4.3602     4.9515     1.0814 O.2     
  16 C16            2.1195     5.4266     1.5444 C.ar    
  17 C17            0.7716     4.2079    -6.4434 C.ar    
  18 C18            0.0966     4.7791    -5.3748 C.ar    
  19 C19            0.4213     4.4198    -4.0812 C.ar    
  20 C20            2.1021     2.9218    -4.9191 C.ar    
  21 C21            1.7773     3.2810    -6.2127 C.ar    
  22 C22            2.2996     5.8953     2.8466 C.ar    
  23 C23            0.9209     5.6815     0.8765 C.ar    
  24 C24           -0.0814     6.3902     1.5089 C.ar    
  25 C25            0.1009     6.8476     2.8028 C.ar    
  26 C26            1.2900     6.6028     3.4685 C.ar    
  27 O27            0.4519     4.5615    -7.7169 O.3     
  28 C28            1.1877     3.9336    -8.7687 C.3     
  29 C29            0.6913     4.4535   -10.1193 C.3     
  30 O30            1.0184    -2.3787    -0.1751 O.3     
  31 C31           -0.2954    -2.9074     0.0158 C.3     
  32 C32           -0.9451    -3.1628    -1.3456 C.3     
  33 C33           -0.2081    -4.2218     0.7940 C.3     
  34 Cl34           1.5120     7.1866     5.0883 Cl      
  35 Cl35          -1.5728     6.7088     0.6795 Cl      
  36 H36           -0.7166     1.7800    -0.0430 H       
  37 H37           -0.9637    -0.6641    -0.0453 H       
  38 H38            3.2795    -1.0731    -0.2777 H       
  39 H39            0.8750     3.6445     0.6209 H       
  40 H40            4.3732     1.4442     0.7488 H       
  41 H41            4.5462     0.8999    -0.9334 H       
  42 H42            4.9036     3.4037    -0.5277 H       
  43 H43            3.7115     2.9889    -1.7879 H       
  44 H44           -0.0562     3.5228    -1.6379 H       
  45 H45            1.1417     4.8377    -1.5735 H       
  46 H46           -0.6866     5.5008    -5.5544 H       
  47 H47           -0.1048     4.8640    -3.2491 H       
  48 H48            2.8852     2.2001    -4.7395 H       
  49 H49            2.3029     2.8362    -7.0448 H       
  50 H50            3.2265     5.7046     3.3670 H       
  51 H51            0.7777     5.3255    -0.1331 H       
  52 H52           -0.6859     7.4015     3.2933 H       
  53 H53            2.2475     4.1635    -8.6582 H       
  54 H54            1.0430     2.8544    -8.7193 H       
  55 H55           -0.3685     4.2237   -10.2298 H       
  56 H56            0.8361     5.5327   -10.1687 H       
  57 H57            1.2526     3.9745   -10.9216 H       
  58 H58           -0.8968    -2.1922     0.5770 H       
  59 H59           -0.3437    -3.8780    -1.9067 H       
  60 H60           -1.9473    -3.5661    -1.2000 H       
  61 H61           -1.0073    -2.2264    -1.9000 H       
  62 H62            0.2548    -4.0398     1.7639 H       
  63 H63           -1.2102    -4.6251     0.9396 H       
  64 H64            0.3933    -4.9370     0.2328 H       
@<TRIPOS>BOND
   1    1    2 ar
   2    1    6 ar
   3    1   36 1
   4    2    3 ar
   5    2   37 1
   6    3    4 ar
   7    3   30 1
   8    4    5 ar
   9    4   38 1
  10    5    6 ar
  11    5    8 1
  12    6    7 1
  13    7   10 1
  14    7   11 1
  15    7   39 1
  16    8    9 1
  17    8   40 1
  18    8   41 1
  19    9   10 1
  20    9   42 1
  21    9   43 1
  22   10   14 am
  23   11   12 1
  24   11   44 1
  25   11   45 1
  26   12   13 1
  27   13   20 ar
  28   13   19 ar
  29   14   15 2
  30   14   16 1
  31   16   23 ar
  32   16   22 ar
  33   17   18 ar
  34   17   21 ar
  35   17   27 1
  36   18   19 ar
  37   18   46 1
  38   19   47 1
  39   20   21 ar
  40   20   48 1
  41   21   49 1
  42   22   26 ar
  43   22   50 1
  44   23   24 ar
  45   23   51 1
  46   24   25 ar
  47   24   35 1
  48   25   26 ar
  49   25   52 1
  50   26   34 1
  51   27   28 1
  52   28   29 1
  53   28   53 1
  54   28   54 1
  55   29   55 1
  56   29   56 1
  57   29   57 1
  58   30   31 1
  59   31   32 1
  60   31   33 1
  61   31   58 1
  62   32   59 1
  63   32   60 1
  64   32   61 1
  65   33   62 1
  66   33   63 1
  67   33   64 1

#	End of record

