#	Name: ASD01150863
#	Creating user name:	WinNT
#	Creation time:	15. 06. 2019 19:05

#	Modifying user name:	WinNT
#	Modification time:	15. 06. 2019 19:05

#	Program:	/corina/corina34_cracker 3.40 0067  02.08.2006

@<TRIPOS>MOLECULE
ASD01150863
  46   48    0    0    0
SMALL
NO_CHARGES


@<TRIPOS>ATOM
   1 C1            -0.0180     1.4734     0.0101 C.ar    
   2 C2             0.0021    -0.0041     0.0020 C.2     
   3 N3            -1.1558    -0.6938     0.0094 N.am    
   4 O4             1.0629    -0.5975    -0.0113 O.2     
   5 C5            -1.1370    -2.0833     0.0017 C.2     
   6 N6            -0.0474    -2.8552    -0.0124 N.2     
   7 C7            -0.3940    -4.1262    -0.0160 C.2     
   8 N8            -1.7513    -4.2227    -0.0042 N.pl3   
   9 C9            -2.2486    -2.9173     0.0134 C.2     
  10 C10           -3.6021    -2.5258     0.0308 C.2     
  11 O11           -4.5757    -3.4617     0.0314 O.3     
  12 O12           -3.8938    -1.3435     0.0451 O.2     
  13 C13           -5.9257    -2.9934     0.0495 C.3     
  14 C14           -6.8804    -4.1890     0.0475 C.3     
  15 S15            0.7244    -5.4876    -0.0345 S.3     
  16 C16            2.3012    -4.5989    -0.0441 C.3     
  17 C17           -2.5046    -5.4035    -0.0037 C.ar    
  18 C18           -2.4412    -6.2688     1.0804 C.ar    
  19 C19           -3.1852    -7.4324     1.0779 C.ar    
  20 C20           -3.9927    -7.7361    -0.0028 C.ar    
  21 C21           -4.0577    -6.8766    -1.0842 C.ar    
  22 C22           -3.3209    -5.7084    -1.0849 C.ar    
  23 C23            1.1798     2.1909     0.0026 C.ar    
  24 C24            1.1543     3.5698     0.0097 C.ar    
  25 C25           -0.0555     4.2426     0.0249 C.ar    
  26 C26           -1.2467     3.5371     0.0325 C.ar    
  27 C27           -1.2348     2.1580     0.0196 C.ar    
  28 I28           -0.0839     6.3374     0.0371 I       
  29 H29           -2.0023    -0.2203     0.0200 H       
  30 H30           -6.0916    -2.3975     0.9470 H       
  31 H31           -6.1094    -2.3802    -0.8328 H       
  32 H32           -6.7145    -4.7849    -0.8501 H       
  33 H33           -6.6967    -4.8021     0.9297 H       
  34 H34           -7.9101    -3.8318     0.0612 H       
  35 H35            3.1222    -5.3157    -0.0560 H       
  36 H36            2.3571    -3.9677    -0.9310 H       
  37 H37            2.3738    -3.9781     0.8489 H       
  38 H38           -1.8104    -6.0324     1.9246 H       
  39 H39           -3.1360    -8.1060     1.9206 H       
  40 H40           -4.5736    -8.6466    -0.0025 H       
  41 H41           -4.6888    -7.1169    -1.9270 H       
  42 H42           -3.3723    -5.0374    -1.9296 H       
  43 H43            2.1243     1.6671    -0.0085 H       
  44 H44            2.0801     4.1259     0.0039 H       
  45 H45           -2.1872     4.0678     0.0443 H       
  46 H46           -2.1647     1.6087     0.0255 H       
@<TRIPOS>BOND
   1    1    2 1
   2    1   23 ar
   3    1   27 ar
   4    2    3 am
   5    2    4 2
   6    3    5 1
   7    3   29 1
   8    5    6 1
   9    5    9 2
  10    6    7 2
  11    7    8 1
  12    7   15 1
  13    8    9 1
  14    8   17 1
  15    9   10 1
  16   10   11 1
  17   10   12 2
  18   11   13 1
  19   13   14 1
  20   13   30 1
  21   13   31 1
  22   14   32 1
  23   14   33 1
  24   14   34 1
  25   15   16 1
  26   16   35 1
  27   16   36 1
  28   16   37 1
  29   17   18 ar
  30   17   22 ar
  31   18   19 ar
  32   18   38 1
  33   19   20 ar
  34   19   39 1
  35   20   21 ar
  36   20   40 1
  37   21   22 ar
  38   21   41 1
  39   22   42 1
  40   23   24 ar
  41   23   43 1
  42   24   25 ar
  43   24   44 1
  44   25   26 ar
  45   25   28 1
  46   26   27 ar
  47   26   45 1
  48   27   46 1

#	End of record

