#	Name: ASD03080215
#	Creating user name:	WinNT
#	Creation time:	15. 06. 2019 20:26

#	Modifying user name:	WinNT
#	Modification time:	15. 06. 2019 20:26

#	Program:	/corina/corina34_cracker 3.40 0067  02.08.2006

@<TRIPOS>MOLECULE
ASD03080215
  33   34    0    0    0
SMALL
NO_CHARGES


@<TRIPOS>ATOM
   1 C1             0.1275     1.1038    -1.1298 C.2     
   2 C2             0.0725    -0.1257    -0.5596 C.2     
   3 C3            -1.1407    -0.8541    -0.5642 C.2     
   4 N4            -1.1953    -2.0758     0.0023 N.am    
   5 O5            -2.1354    -0.3771    -1.0801 O.2     
   6 C6            -2.4184    -2.7457     0.1027 C.ar    
   7 C7            -4.7959    -2.6940     0.4119 C.ar    
   8 C8            -3.5892    -2.0290     0.3131 C.ar    
   9 C9            -2.4659    -4.1293    -0.0135 C.ar    
  10 C10           -3.6755    -4.7878     0.0862 C.ar    
  11 C11           -4.8389    -4.0716     0.3015 C.ar    
  12 C12           -6.1572    -4.7937     0.4097 C.3     
  13 C13            1.3415     1.8327    -1.1252 C.2     
  14 C14            1.5389     3.0865    -1.6657 C.2     
  15 C15            2.8830     3.4147    -1.4324 C.2     
  16 C16            3.4403     2.3738    -0.7745 C.2     
  17 O17            2.5103     1.4273    -0.5863 O.3     
  18 C18           -1.1988    -4.9105    -0.2485 C.3     
  19 H19           -0.7535     1.5250    -1.5913 H       
  20 H20            0.9546    -0.5488    -0.1021 H       
  21 H21           -0.3861    -2.4903     0.3404 H       
  22 H22           -5.7067    -2.1373     0.5759 H       
  23 H23           -3.5563    -0.9530     0.3998 H       
  24 H24           -3.7131    -5.8634    -0.0044 H       
  25 H25           -6.6053    -4.8823    -0.5800 H       
  26 H26           -5.9937    -5.7882     0.8249 H       
  27 H27           -6.8261    -4.2329     1.0625 H       
  28 H28            0.8033     3.6958    -2.1698 H       
  29 H29            3.3796     4.3283    -1.7242 H       
  30 H30            4.4685     2.3159    -0.4491 H       
  31 H31           -0.7604    -5.1886     0.7099 H       
  32 H32           -1.4276    -5.8110    -0.8184 H       
  33 H33           -0.4920    -4.2968    -0.8070 H       
@<TRIPOS>BOND
   1    1    2 2
   2    1   13 1
   3    1   19 1
   4    2    3 1
   5    2   20 1
   6    3    4 am
   7    3    5 2
   8    4    6 1
   9    4   21 1
  10    6    9 ar
  11    6    8 ar
  12    7    8 ar
  13    7   11 ar
  14    7   22 1
  15    8   23 1
  16    9   10 ar
  17    9   18 1
  18   10   11 ar
  19   10   24 1
  20   11   12 1
  21   12   25 1
  22   12   26 1
  23   12   27 1
  24   13   14 2
  25   13   17 1
  26   14   15 1
  27   14   28 1
  28   15   16 2
  29   15   29 1
  30   16   17 1
  31   16   30 1
  32   18   31 1
  33   18   32 1
  34   18   33 1

#	End of record

