#	Name: ASD01730054
#	Creating user name:	WinNT
#	Creation time:	15. 06. 2019 19:23

#	Modifying user name:	WinNT
#	Modification time:	15. 06. 2019 19:23

#	Program:	/corina/corina34_cracker 3.40 0067  02.08.2006

@<TRIPOS>MOLECULE
ASD01730054
  36   38    0    0    0
SMALL
NO_CHARGES


@<TRIPOS>ATOM
   1 N1            -0.0162     1.3436     0.0094 N.am    
   2 C2             0.1044     0.0181    -0.2032 C.2     
   3 S3             1.6322    -0.6516    -0.5879 S.2     
   4 N4            -0.9778    -0.7801    -0.1129 N.am    
   5 S5            -2.1771    -3.2959    -0.2464 S.3     
   6 C6            -0.8540    -2.1413    -0.3312 C.2     
   7 N7             0.2470    -2.7417    -0.6258 N.2     
   8 C8             0.2081    -4.0761    -0.8099 C.ar    
   9 C9            -1.0735    -4.6106    -0.6440 C.ar    
  10 C10            1.2635    -4.9537    -1.1361 C.ar    
  11 C11            1.0290    -6.2975    -1.2854 C.ar    
  12 C12           -0.2470    -6.8145    -1.1185 C.ar    
  13 C13           -1.2927    -5.9768    -0.7990 C.ar    
  14 S14           -0.5305    -8.5424    -1.3151 S.o2    
  15 O15           -1.8978    -8.6326    -1.6913 O.2     
  16 O16            0.5010    -8.9688    -2.1946 O.2     
  17 C17           -0.2795    -9.2338     0.3430 C.3     
  18 C18            1.1212     2.1597     0.0039 C.ar    
  19 C19            2.0713     2.0213    -0.9994 C.ar    
  20 C20            3.1931     2.8283    -1.0031 C.ar    
  21 C21            3.3698     3.7747    -0.0060 C.ar    
  22 C22            2.4235     3.9135     0.9945 C.ar    
  23 C23            1.2979     3.1123     0.9983 C.ar    
  24 F24            4.4674     4.5624    -0.0104 F       
  25 Cl25           4.3815     2.6564    -2.2568 Cl      
  26 H26           -0.8915     1.7326     0.1623 H       
  27 H27           -1.8435    -0.4006     0.1051 H       
  28 H28            2.2624    -4.5654    -1.2695 H       
  29 H29            1.8456    -6.9585    -1.5356 H       
  30 H30           -2.2858    -6.3809    -0.6689 H       
  31 H31           -0.9885    -8.7815     1.0364 H       
  32 H32           -0.4366   -10.3120     0.3147 H       
  33 H33            0.7374    -9.0234     0.6743 H       
  34 H34            1.9338     1.2834    -1.7759 H       
  35 H35            2.5630     4.6515     1.7706 H       
  36 H36            0.5578     3.2243     1.7768 H       
@<TRIPOS>BOND
   1    1    2 am
   2    1   18 1
   3    1   26 1
   4    2    3 2
   5    2    4 am
   6    4    6 1
   7    4   27 1
   8    5    6 1
   9    5    9 1
  10    6    7 2
  11    7    8 1
  12    8    9 ar
  13    8   10 ar
  14    9   13 ar
  15   10   11 ar
  16   10   28 1
  17   11   12 ar
  18   11   29 1
  19   12   13 ar
  20   12   14 1
  21   13   30 1
  22   14   15 2
  23   14   16 2
  24   14   17 1
  25   17   31 1
  26   17   32 1
  27   17   33 1
  28   18   19 ar
  29   18   23 ar
  30   19   20 ar
  31   19   34 1
  32   20   21 ar
  33   20   25 1
  34   21   22 ar
  35   21   24 1
  36   22   23 ar
  37   22   35 1
  38   23   36 1

#	End of record

