#	Name: ASD00170413
#	Creating user name:	WinNT
#	Creation time:	15. 06. 2019 18:32

#	Modifying user name:	WinNT
#	Modification time:	15. 06. 2019 18:32

#	Program:	/corina/corina34_cracker 3.40 0067  02.08.2006

@<TRIPOS>MOLECULE
ASD00170413
  70   74    0    0    0
SMALL
NO_CHARGES


@<TRIPOS>ATOM
   1 C1            -0.4418     0.7737    -0.3099 C.2     
   2 C2            -0.6388    -0.5112     0.1466 C.2     
   3 C3            -1.9980    -0.9652    -0.0283 C.2     
   4 C4            -2.7873    -0.0457    -0.5974 C.2     
   5 S5            -1.8880     1.4222    -0.9361 S.3     
   6 C6            -2.4783    -2.3322     0.3860 C.3     
   7 C7            -4.2217    -0.2392    -0.8956 C.ar    
   8 C8            -5.1519     0.7340    -0.5260 C.ar    
   9 C9            -6.4893     0.5479    -0.8076 C.ar    
  10 C10           -6.9100    -0.6014    -1.4554 C.ar    
  11 C11           -5.9922    -1.5703    -1.8245 C.ar    
  12 C12           -4.6514    -1.3933    -1.5532 C.ar    
  13 N13            0.7606     1.4457    -0.2613 N.pl3   
  14 C14            0.4175    -1.3290     0.7446 C.2     
  15 C15            1.2139    -2.2427    -0.1022 C.ar    
  16 O16            0.6404    -1.2569     1.9395 O.2     
  17 C17            2.2925    -2.9419     0.4428 C.ar    
  18 C18            3.0316    -3.7926    -0.3519 C.ar    
  19 C19            2.7057    -3.9542    -1.6884 C.ar    
  20 C20            1.6367    -3.2632    -2.2349 C.ar    
  21 C21            0.8867    -2.4141    -1.4487 C.ar    
  22 Cl22           3.6411    -5.0265    -2.6828 Cl      
  23 N23           -2.2593    -2.5122     1.8274 N.3     
  24 C24           -3.3056    -1.8375     2.6071 C.3     
  25 C25           -3.1087    -0.3226     2.5213 C.3     
  26 C26           -4.1985     0.3801     3.3335 C.3     
  27 C27           -5.5723     0.0116     2.7697 C.3     
  28 C28           -5.7691    -1.5033     2.8554 C.3     
  29 C29           -4.6794    -2.2060     2.0433 C.3     
  30 C30           -2.1809    -3.9375     2.1740 C.3     
  31 C31           -0.9621    -4.5620     1.4919 C.3     
  32 C32           -0.8805    -6.0466     1.8530 C.3     
  33 C33           -0.7483    -6.1960     3.3699 C.3     
  34 C34           -1.9671    -5.5715     4.0520 C.3     
  35 C35           -2.0487    -4.0869     3.6910 C.3     
  36 Cl36          -8.5950    -0.8286    -1.8058 Cl      
  37 H37           -3.5416    -2.4260     0.1655 H       
  38 H38           -1.9248    -3.0937    -0.1635 H       
  39 H39           -4.8250     1.6306    -0.0204 H       
  40 H40           -7.2099     1.2999    -0.5218 H       
  41 H41           -6.3263    -2.4647    -2.3292 H       
  42 H42           -3.9364    -2.1495    -1.8419 H       
  43 H43            1.5242     1.0422     0.1802 H       
  44 H44            0.8432     2.3222    -0.6687 H       
  45 H45            2.5477    -2.8164     1.4847 H       
  46 H46            3.8663    -4.3337     0.0685 H       
  47 H47            1.3874    -3.3932    -3.2776 H       
  48 H48            0.0535    -1.8759    -1.8758 H       
  49 H49           -3.2435    -2.1535     3.6484 H       
  50 H50           -2.1300    -0.0601     2.9230 H       
  51 H51           -3.1708    -0.0065     1.4800 H       
  52 H52           -4.1364     0.0640     4.3748 H       
  53 H53           -4.0583     1.4593     3.2723 H       
  54 H54           -6.3487     0.5122     3.3482 H       
  55 H55           -5.6344     0.3277     1.7283 H       
  56 H56           -5.7071    -1.8193     3.8968 H       
  57 H57           -6.7479    -1.7658     2.4538 H       
  58 H58           -4.7415    -1.8899     1.0020 H       
  59 H59           -4.8196    -3.2852     2.1044 H       
  60 H60           -3.0853    -4.4438     1.8366 H       
  61 H61           -1.0563    -4.4556     0.4112 H       
  62 H62           -0.0577    -4.0558     1.8294 H       
  63 H63           -1.7849    -6.5528     1.5155 H       
  64 H64           -0.0122    -6.4915     1.3670 H       
  65 H65           -0.6901    -7.2536     3.6271 H       
  66 H66            0.1561    -5.6897     3.7074 H       
  67 H67           -2.8715    -6.0777     3.7145 H       
  68 H68           -1.8729    -5.6779     5.1327 H       
  69 H69           -1.1443    -3.5807     4.0285 H       
  70 H70           -2.9170    -3.6420     4.1770 H       
@<TRIPOS>BOND
   1    1    2 2
   2    1   13 1
   3    1    5 1
   4    2    3 1
   5    2   14 1
   6    3    4 2
   7    3    6 1
   8    4    5 1
   9    4    7 1
  10    6   23 1
  11    6   37 1
  12    6   38 1
  13    7    8 ar
  14    7   12 ar
  15    8    9 ar
  16    8   39 1
  17    9   10 ar
  18    9   40 1
  19   10   11 ar
  20   10   36 1
  21   11   12 ar
  22   11   41 1
  23   12   42 1
  24   13   43 1
  25   13   44 1
  26   14   15 1
  27   14   16 2
  28   15   17 ar
  29   15   21 ar
  30   17   18 ar
  31   17   45 1
  32   18   19 ar
  33   18   46 1
  34   19   20 ar
  35   19   22 1
  36   20   21 ar
  37   20   47 1
  38   21   48 1
  39   23   24 1
  40   23   30 1
  41   24   25 1
  42   24   29 1
  43   24   49 1
  44   25   26 1
  45   25   50 1
  46   25   51 1
  47   26   27 1
  48   26   52 1
  49   26   53 1
  50   27   28 1
  51   27   54 1
  52   27   55 1
  53   28   29 1
  54   28   56 1
  55   28   57 1
  56   29   58 1
  57   29   59 1
  58   30   31 1
  59   30   35 1
  60   30   60 1
  61   31   32 1
  62   31   61 1
  63   31   62 1
  64   32   33 1
  65   32   63 1
  66   32   64 1
  67   33   34 1
  68   33   65 1
  69   33   66 1
  70   34   35 1
  71   34   67 1
  72   34   68 1
  73   35   69 1
  74   35   70 1

#	End of record

