#	Name: ASD05740202
#	Creating user name:	WinNT
#	Creation time:	15. 06. 2019 21:03

#	Modifying user name:	WinNT
#	Modification time:	15. 06. 2019 21:03

#	Program:	/corina/corina34_cracker 3.40 0067  02.08.2006

@<TRIPOS>MOLECULE
ASD05740202
  61   65    0    0    0
SMALL
NO_CHARGES


@<TRIPOS>ATOM
   1 C1             1.3385    -1.4603     0.0734 C.3     
   2 N2             0.4516    -0.7468     1.0030 N.3     
   3 C3            -0.8771    -1.1552     0.8417 C.ar    
   4 C4            -1.8755    -0.5976     1.6298 C.ar    
   5 C5            -3.1864    -1.0006     1.4706 C.ar    
   6 C6            -3.5066    -1.9637     0.5228 C.ar    
   7 C7            -2.5082    -2.5216    -0.2649 C.ar    
   8 C8            -1.1982    -2.1139    -0.1104 C.ar    
   9 N9            -4.8365    -2.3729     0.3616 N.pl3   
  10 C10           -5.8635    -1.4642     0.5272 C.ar    
  11 N11           -5.5602    -0.1852     0.7205 N.ar    
  12 N12           -7.1138    -1.9003     0.4819 N.ar    
  13 C13           -8.1250    -1.0555     0.6369 C.ar    
  14 C14           -7.8405     0.3114     0.8501 C.ar    
  15 C15           -6.5039     0.7244     0.8844 C.ar    
  16 N16           -9.4291    -1.4764     0.5946 N.am    
  17 C17          -10.4421    -0.6061     0.7533 C.2     
  18 C18          -10.2143     0.7682     0.9683 C.2     
  19 C19           -8.9450     1.2502     1.0220 C.2     
  20 C20           -9.7234    -2.8943     0.3729 C.3     
  21 O21          -11.5887    -1.0170     0.7095 O.2     
  22 C22            0.8936    -0.9291     2.3926 C.3     
  23 C23            2.3211    -0.3985     2.5449 C.3     
  24 N24            3.2079    -1.1120     1.6153 N.3     
  25 C25            2.7659    -0.9297     0.2257 C.3     
  26 C26           -9.7686    -3.6111     1.6977 C.ar    
  27 C27            4.6027    -0.6833     1.7847 C.3     
  28 C28           -9.9657    -4.9787     1.7369 C.ar    
  29 C29           -9.6074    -2.9016     2.8729 C.ar    
  30 C30          -10.0070    -5.6377     2.9517 C.ar    
  31 C31           -9.8513    -4.9298     4.1280 C.ar    
  32 C32           -9.6486    -3.5604     4.0898 C.ar    
  33 C33          -10.1361    -5.7518     0.4547 C.3     
  34 F34           -9.4962    -2.8672     5.2393 F       
  35 H35            1.3207    -2.5263     0.2998 H       
  36 H36            0.9980    -1.2997    -0.9495 H       
  37 H37           -1.6264     0.1509     2.3674 H       
  38 H38           -3.9628    -0.5670     2.0834 H       
  39 H39           -2.7572    -3.2712    -1.0016 H       
  40 H40           -0.4217    -2.5477    -0.7230 H       
  41 H41           -5.0362    -3.2943     0.1338 H       
  42 H42           -6.2499     1.7617     1.0456 H       
  43 H43          -11.0510     1.4399     1.0912 H       
  44 H44           -8.7581     2.3011     1.1866 H       
  45 H45          -10.6877    -2.9916    -0.1260 H       
  46 H46           -8.9454    -3.3336    -0.2515 H       
  47 H47            0.2288    -0.3813     3.0605 H       
  48 H48            0.8708    -1.9892     2.6454 H       
  49 H49            2.3389     0.6676     2.3185 H       
  50 H50            2.6616    -0.5591     3.5679 H       
  51 H51            3.4307    -1.4775    -0.4422 H       
  52 H52            2.7888     0.1304    -0.0270 H       
  53 H53            4.9255    -0.8914     2.8048 H       
  54 H54            5.2374    -1.2268     1.0848 H       
  55 H55            4.6802     0.3864     1.5901 H       
  56 H56           -9.4490    -1.8337     2.8418 H       
  57 H57          -10.1613    -6.7062     2.9811 H       
  58 H58           -9.8836    -5.4448     5.0768 H       
  59 H59           -9.1588    -6.0619     0.0847 H       
  60 H60          -10.7505    -6.6328     0.6405 H       
  61 H61          -10.6223    -5.1201    -0.2887 H       
@<TRIPOS>BOND
   1    1    2 1
   2    1   25 1
   3    1   35 1
   4    1   36 1
   5    2    3 1
   6    2   22 1
   7    3    4 ar
   8    3    8 ar
   9    4    5 ar
  10    4   37 1
  11    5    6 ar
  12    5   38 1
  13    6    7 ar
  14    6    9 1
  15    7    8 ar
  16    7   39 1
  17    8   40 1
  18    9   10 1
  19    9   41 1
  20   10   11 ar
  21   10   12 ar
  22   11   15 ar
  23   12   13 ar
  24   13   14 ar
  25   13   16 1
  26   14   15 ar
  27   14   19 1
  28   15   42 1
  29   16   17 am
  30   16   20 1
  31   17   18 1
  32   17   21 2
  33   18   19 2
  34   18   43 1
  35   19   44 1
  36   20   26 1
  37   20   45 1
  38   20   46 1
  39   22   23 1
  40   22   47 1
  41   22   48 1
  42   23   24 1
  43   23   49 1
  44   23   50 1
  45   24   25 1
  46   24   27 1
  47   25   51 1
  48   25   52 1
  49   26   29 ar
  50   26   28 ar
  51   27   53 1
  52   27   54 1
  53   27   55 1
  54   28   30 ar
  55   28   33 1
  56   29   32 ar
  57   29   56 1
  58   30   31 ar
  59   30   57 1
  60   31   32 ar
  61   31   58 1
  62   32   34 1
  63   33   59 1
  64   33   60 1
  65   33   61 1

#	End of record

