#	Name: ASD01908050
#	Creating user name:	WinNT
#	Creation time:	15. 06. 2019 19:54

#	Modifying user name:	WinNT
#	Modification time:	15. 06. 2019 19:54

#	Program:	/corina/corina34_cracker 3.40 0067  02.08.2006

@<TRIPOS>MOLECULE
ASD01908050
  25   24    0    0    0
SMALL
NO_CHARGES


@<TRIPOS>ATOM
   1 N1            -0.0169     1.3953     0.0097 N.pl3   
   2 N2             0.0021    -0.0041     0.0020 N.2     
   3 C3             1.2430    -0.4084    -0.0120 C.2     
   4 C4             2.0748     0.7315    -0.0138 C.2     
   5 C5             1.2530     1.8372    -0.0000 C.2     
   6 C6             3.5532     0.7380    -0.0275 C.2     
   7 N7             4.2100    -0.3882    -0.0394 N.2     
   8 N8             4.2369     1.9343    -0.0276 N.pl3   
   9 C9             1.7065    -1.8423    -0.0241 C.3     
  10 H10           -0.8113     1.9519     0.0167 H       
  11 H11            1.5705     2.8695     0.0025 H       
  12 H12            5.1799    -0.3839    -0.0483 H       
  13 H13            3.7483     2.7722    -0.0188 H       
  14 H14            5.2069     1.9386    -0.0366 H       
  15 H15            1.8089    -2.1824    -1.0547 H       
  16 H16            2.6698    -1.9171     0.4805 H       
  17 H17            0.9762    -2.4646     0.4930 H       
  18 C18           11.3783     9.7490     6.0255 C.2     
  19 C19           11.3987     8.2422     6.0172 C.3     
  20 O20           12.4163    10.3673     6.0189 O.2     
  21 O21           10.2069    10.4043     6.0346 O.3     
  22 H22           11.4135     7.8734     7.0428 H       
  23 H23           10.5089     7.8695     5.5098 H       
  24 H24           12.2886     7.8937     5.4930 H       
  25 H25           10.2444    11.3705     6.0397 H       
@<TRIPOS>BOND
   1    1    2 1
   2    1    5 1
   3    1   10 1
   4    2    3 2
   5    3    4 1
   6    3    9 1
   7    4    5 2
   8    4    6 1
   9    5   11 1
  10    6    7 2
  11    6    8 1
  12    7   12 1
  13    8   13 1
  14    8   14 1
  15    9   15 1
  16    9   16 1
  17    9   17 1
  18   18   19 1
  19   18   20 2
  20   18   21 1
  21   19   22 1
  22   19   23 1
  23   19   24 1
  24   21   25 1

#	End of record

