#	Name: ASD08170045
#	Creating user name:	WinNT
#	Creation time:	15. 06. 2019 21:17

#	Modifying user name:	WinNT
#	Modification time:	15. 06. 2019 21:17

#	Program:	/corina/corina34_cracker 3.40 0067  02.08.2006

@<TRIPOS>MOLECULE
ASD08170045
  58   62    0    0    0
SMALL
NO_CHARGES


@<TRIPOS>ATOM
   1 C1             0.0637     1.2414    -0.2164 C.3     
   2 C2            -0.0335    -0.2869    -0.2306 C.3     
   3 C3            -1.4681    -0.6998    -0.0625 C.2     
   4 C4            -2.3480     0.0631     0.6404 C.2     
   5 C5            -1.9517     1.2737     1.2233 C.2     
   6 C6            -0.5328     1.7627     1.0947 C.3     
   7 C7            -1.9623    -1.9421    -0.6612 C.ar    
   8 C8            -3.3457    -2.1050    -0.8165 C.ar    
   9 N9            -4.2096    -1.1073    -0.4235 N.3     
  10 C10           -3.7695    -0.4187     0.7916 C.3     
  11 C11           -1.0711    -2.9508    -1.0726 C.ar    
  12 C12           -1.5330    -4.1006    -1.6221 C.ar    
  13 C13           -2.9187    -4.3034    -1.7896 C.ar    
  14 C14           -3.8341    -3.3018    -1.3828 C.ar    
  15 C15           -3.4086    -5.4905    -2.3565 C.ar    
  16 C16           -4.7516    -5.6645    -2.5068 C.ar    
  17 C17           -5.6506    -4.6797    -2.1062 C.ar    
  18 C18           -5.2109    -3.5151    -1.5519 C.ar    
  19 C19           -3.8513    -1.3684     1.9588 C.ar    
  20 C20           -4.8578    -2.3151     2.0085 C.ar    
  21 C21           -4.9356    -3.1874     3.0775 C.ar    
  22 C22           -4.0003    -3.1123     4.1026 C.ar    
  23 C23           -2.9906    -2.1602     4.0487 C.ar    
  24 C24           -2.9160    -1.2947     2.9749 C.ar    
  25 C25            1.5313     1.6628    -0.3151 C.3     
  26 C26           -0.7154     1.8158    -1.4013 C.3     
  27 O27           -2.7620     1.9371     1.8399 O.2     
  28 N28           -4.0760    -3.9923     5.1853 N.3     
  29 C29           -2.8546    -4.8014     5.2924 C.3     
  30 C30           -4.3384    -3.2672     6.4357 C.3     
  31 Br31          -6.3131    -4.4811     3.1455 Br      
  32 H32            0.3448    -0.6661    -1.1799 H       
  33 H33            0.5604    -0.6963     0.5866 H       
  34 H34            0.0566     1.3946     1.9344 H       
  35 H35           -0.5222     2.8526     1.0916 H       
  36 H36           -4.3694    -0.4513    -1.1733 H       
  37 H37           -4.4209     0.4353     0.9771 H       
  38 H38           -0.0079    -2.8071    -0.9494 H       
  39 H39           -0.8366    -4.8650    -1.9337 H       
  40 H40           -2.7233    -6.2631    -2.6728 H       
  41 H41           -5.1241    -6.5793    -2.9434 H       
  42 H42           -6.7106    -4.8413    -2.2357 H       
  43 H43           -5.9187    -2.7592    -1.2452 H       
  44 H44           -5.5841    -2.3726     1.2113 H       
  45 H45           -2.2624    -2.0989     4.8439 H       
  46 H46           -2.1308    -0.5544     2.9325 H       
  47 H47            1.9571     1.2812    -1.2431 H       
  48 H48            1.5984     2.7506    -0.3048 H       
  49 H49            2.0837     1.2566     0.5322 H       
  50 H50           -1.7614     1.5185    -1.3268 H       
  51 H51           -0.6451     2.9034    -1.3895 H       
  52 H52           -0.2947     1.4346    -2.3318 H       
  53 H53           -1.9956    -4.1456     5.4343 H       
  54 H54           -2.9400    -5.4775     6.1431 H       
  55 H55           -2.7218    -5.3815     4.3792 H       
  56 H56           -5.2844    -2.7320     6.3536 H       
  57 H57           -4.3924    -3.9758     7.2621 H       
  58 H58           -3.5331    -2.5558     6.6190 H       
@<TRIPOS>BOND
   1    1    2 1
   2    1   25 1
   3    1   26 1
   4    1    6 1
   5    2    3 1
   6    2   32 1
   7    2   33 1
   8    3    4 2
   9    3    7 1
  10    4    5 1
  11    4   10 1
  12    5    6 1
  13    5   27 2
  14    6   34 1
  15    6   35 1
  16    7    8 ar
  17    7   11 ar
  18    8    9 1
  19    8   14 ar
  20    9   10 1
  21    9   36 1
  22   10   19 1
  23   10   37 1
  24   11   12 ar
  25   11   38 1
  26   12   13 ar
  27   12   39 1
  28   13   14 ar
  29   13   15 ar
  30   14   18 ar
  31   15   16 ar
  32   15   40 1
  33   16   17 ar
  34   16   41 1
  35   17   18 ar
  36   17   42 1
  37   18   43 1
  38   19   20 ar
  39   19   24 ar
  40   20   21 ar
  41   20   44 1
  42   21   22 ar
  43   21   31 1
  44   22   23 ar
  45   22   28 1
  46   23   24 ar
  47   23   45 1
  48   24   46 1
  49   25   47 1
  50   25   48 1
  51   25   49 1
  52   26   50 1
  53   26   51 1
  54   26   52 1
  55   28   29 1
  56   28   30 1
  57   29   53 1
  58   29   54 1
  59   29   55 1
  60   30   56 1
  61   30   57 1
  62   30   58 1

#	End of record

