#	Name: ASD01231384
#	Creating user name:	WinNT
#	Creation time:	15. 06. 2019 19:15

#	Modifying user name:	WinNT
#	Modification time:	15. 06. 2019 19:15

#	Program:	/corina/corina34_cracker 3.40 0067  02.08.2006

@<TRIPOS>MOLECULE
ASD01231384
  51   53    0    0    0
SMALL
NO_CHARGES


@<TRIPOS>ATOM
   1 C1            -0.0187     1.5258     0.0104 C.3     
   2 C2             0.0021    -0.0041     0.0020 C.3     
   3 C3             0.7421    -0.5109     1.2415 C.3     
   4 S4            -1.6997    -0.6320     0.0149 S.o2    
   5 O5            -1.7138    -2.0386    -0.1864 O.2     
   6 O6            -2.4435    -0.0351     1.0684 O.2     
   7 N7            -2.3782    -0.0153    -1.3642 N.am    
   8 C8            -2.7399    -1.5695    -3.2588 C.3     
   9 C9            -1.8762    -0.4306    -2.6764 C.3     
  10 C10           -2.0651     0.6937    -3.7169 C.3     
  11 C11           -2.3860    -0.0172    -5.0142 C.ar    
  12 C12           -2.3423     0.4379    -6.3216 C.ar    
  13 C13           -2.6847    -0.4032    -7.3620 C.ar    
  14 C14           -3.0725    -1.7039    -7.0988 C.ar    
  15 C15           -3.1168    -2.1594    -5.7958 C.ar    
  16 C16           -2.7738    -1.3175    -4.7510 C.ar    
  17 C17           -2.6351     0.0961    -8.7831 C.3     
  18 O18           -1.3373    -0.1485    -9.3289 O.3     
  19 C19           -1.1234     0.2450   -10.6130 C.ar    
  20 C20            0.1176     0.0379   -11.2084 C.ar    
  21 C21            0.3305     0.4405   -12.5166 C.ar    
  22 C22           -0.6886     1.0467   -13.2281 C.ar    
  23 C23           -1.9207     1.2528   -12.6367 C.ar    
  24 C24           -2.1418     0.8477   -11.3331 C.ar    
  25 O25            1.1189    -0.5581   -10.5072 O.3     
  26 C26            2.3655    -0.7382   -11.1823 C.3     
  27 F27            2.8691     0.5075   -11.5719 F       
  28 F28            3.2760    -1.3610   -10.3219 F       
  29 F29            2.1717    -1.5375   -12.3140 F       
  30 H30            1.0039     1.9031     0.0027 H       
  31 H31           -0.5459     1.8868    -0.8726 H       
  32 H32           -0.5289     1.8773     0.9072 H       
  33 H33            0.5123    -0.3556    -0.8948 H       
  34 H34            0.2319    -0.1594     2.1383 H       
  35 H35            0.7568    -1.6008     1.2356 H       
  36 H36            1.7647    -0.1336     1.2338 H       
  37 H37           -3.1078     0.6209    -1.3031 H       
  38 H38           -2.2825    -2.5363    -3.0488 H       
  39 H39           -3.7477    -1.5292    -2.8455 H       
  40 H40           -0.8300    -0.7301    -2.6152 H       
  41 H41           -2.8913     1.3427    -3.4268 H       
  42 H42           -1.1469     1.2720    -3.8197 H       
  43 H43           -2.0398     1.4539    -6.5280 H       
  44 H44           -3.3410    -2.3629    -7.9112 H       
  45 H45           -3.4198    -3.1756    -5.5909 H       
  46 H46           -3.3839    -0.4266    -9.3782 H       
  47 H47           -2.8404     1.1664    -8.7995 H       
  48 H48            1.2926     0.2812   -12.9808 H       
  49 H49           -0.5213     1.3601   -14.2479 H       
  50 H50           -2.7140     1.7269   -13.1955 H       
  51 H51           -3.1070     1.0052   -10.8750 H       
@<TRIPOS>BOND
   1    1    2 1
   2    1   30 1
   3    1   31 1
   4    1   32 1
   5    2    3 1
   6    2    4 1
   7    2   33 1
   8    3   34 1
   9    3   35 1
  10    3   36 1
  11    4    5 2
  12    4    6 2
  13    4    7 am
  14    7    9 1
  15    7   37 1
  16    8    9 1
  17    8   16 1
  18    8   38 1
  19    8   39 1
  20    9   10 1
  21    9   40 1
  22   10   11 1
  23   10   41 1
  24   10   42 1
  25   11   12 ar
  26   11   16 ar
  27   12   13 ar
  28   12   43 1
  29   13   14 ar
  30   13   17 1
  31   14   15 ar
  32   14   44 1
  33   15   16 ar
  34   15   45 1
  35   17   18 1
  36   17   46 1
  37   17   47 1
  38   18   19 1
  39   19   20 ar
  40   19   24 ar
  41   20   21 ar
  42   20   25 1
  43   21   22 ar
  44   21   48 1
  45   22   23 ar
  46   22   49 1
  47   23   24 ar
  48   23   50 1
  49   24   51 1
  50   25   26 1
  51   26   27 1
  52   26   28 1
  53   26   29 1

#	End of record

