#	Name: ASD01917542
#	Creating user name:	WinNT
#	Creation time:	15. 06. 2019 20:09

#	Modifying user name:	WinNT
#	Modification time:	15. 06. 2019 20:09

#	Program:	/corina/corina34_cracker 3.40 0067  02.08.2006

@<TRIPOS>MOLECULE
ASD01917542
  41   44    0    0    0
SMALL
NO_CHARGES


@<TRIPOS>ATOM
   1 C1            -0.0167     1.3815     0.0096 C.ar    
   2 C2             0.0021    -0.0041     0.0020 C.ar    
   3 C3             1.2198    -0.6651    -0.0132 C.ar    
   4 N4             2.3574     0.0030    -0.0204 N.ar    
   5 C5             2.3919     1.3189    -0.0137 C.ar    
   6 C6             1.2080     2.0614     0.0016 C.ar    
   7 C7             1.2463     3.4928     0.0084 C.1     
   8 C8             1.2777     4.6664     0.0141 C.1     
   9 C9             1.3159     6.0979     0.0209 C.ar    
  10 C10            0.1288     6.8427     0.0417 C.ar    
  11 C11            2.5372     6.7762     0.0129 C.ar    
  12 N12            2.5715     8.0925     0.0197 N.ar    
  13 C13            1.4701     8.8184     0.0341 C.ar    
  14 C14            0.2212     8.2228     0.0480 C.ar    
  15 C15           -1.0255     9.0690     0.0697 C.3     
  16 C16           -0.9684    11.3562     0.0484 C.2     
  17 N17           -0.8039    10.2956     0.8507 N.am    
  18 C18           -1.3522     9.5880    -1.3439 C.3     
  19 O19           -1.2810    11.0374    -1.2126 O.3     
  20 C20           -2.7378     9.1623    -1.7559 C.ar    
  21 C21           -3.8321     9.9223    -1.3872 C.ar    
  22 C22           -2.9131     8.0151    -2.5071 C.ar    
  23 C23           -4.1833     7.6239    -2.8859 C.ar    
  24 C24           -5.2805     8.3812    -2.5124 C.ar    
  25 C25           -5.1033     9.5328    -1.7645 C.ar    
  26 O26           -0.8452    12.5028     0.4313 O.2     
  27 F27           -6.5227     8.0000    -2.8826 F       
  28 F28           -1.1542    -0.7028     0.0098 F       
  29 H29           -0.9511     1.9230     0.0170 H       
  30 H30            1.2379    -1.7449    -0.0188 H       
  31 H31            3.3436     1.8294    -0.0197 H       
  32 H32           -0.8331     6.3518     0.0521 H       
  33 H33            3.4607     6.2164     0.0014 H       
  34 H34            1.5444     9.8958     0.0392 H       
  35 H35           -1.8648     8.5022     0.4729 H       
  36 H36           -0.5761    10.3310     1.7929 H       
  37 H37           -0.6129     9.2326    -2.0617 H       
  38 H38           -3.6936    10.8205    -0.8038 H       
  39 H39           -2.0570     7.4245    -2.7983 H       
  40 H40           -4.3199     6.7280    -3.4734 H       
  41 H41           -5.9581    10.1266    -1.4760 H       
@<TRIPOS>BOND
   1    1    2 ar
   2    1    6 ar
   3    1   29 1
   4    2    3 ar
   5    2   28 1
   6    3    4 ar
   7    3   30 1
   8    4    5 ar
   9    5    6 ar
  10    5   31 1
  11    6    7 1
  12    7    8 3
  13    8    9 1
  14    9   11 ar
  15    9   10 ar
  16   10   14 ar
  17   10   32 1
  18   11   12 ar
  19   11   33 1
  20   12   13 ar
  21   13   14 ar
  22   13   34 1
  23   14   15 1
  24   15   18 1
  25   15   17 1
  26   15   35 1
  27   16   17 am
  28   16   19 1
  29   16   26 2
  30   17   36 1
  31   18   19 1
  32   18   20 1
  33   18   37 1
  34   20   22 ar
  35   20   21 ar
  36   21   25 ar
  37   21   38 1
  38   22   23 ar
  39   22   39 1
  40   23   24 ar
  41   23   40 1
  42   24   25 ar
  43   24   27 1
  44   25   41 1

#	End of record

