#	Name: ASD01881457
#	Creating user name:	WinNT
#	Creation time:	15. 06. 2019 19:42

#	Modifying user name:	WinNT
#	Modification time:	15. 06. 2019 19:42

#	Program:	/corina/corina34_cracker 3.40 0067  02.08.2006

@<TRIPOS>MOLECULE
ASD01881457
  53   57    0    0    0
SMALL
NO_CHARGES


@<TRIPOS>ATOM
   1 C1            -2.0955     1.4684     0.4105 C.3     
   2 C2             0.7704     9.8272     4.2678 C.ar    
   3 C3             0.7203     8.6981     3.4758 C.ar    
   4 C4            -0.2794    10.1274     5.1166 C.ar    
   5 C5            -1.3865     9.2978     5.1774 C.ar    
   6 C6            -1.4475     8.1654     4.3895 C.ar    
   7 C7            -0.3915     7.8586     3.5321 C.ar    
   8 C8            -0.4509     6.6450     2.6835 C.2     
   9 C9            -0.4977     6.7578     1.3070 C.2     
  10 C10           -0.4545     5.3584     3.2751 C.2     
  11 C11           -0.5086     4.2573     2.5025 C.2     
  12 N12           -0.5607     4.3593     1.1421 N.pl3   
  13 C13           -0.5535     5.5889     0.5289 C.2     
  14 C14           -0.6209     3.4432     0.1370 C.2     
  15 N15           -0.6525     4.1002    -0.9938 N.2     
  16 N16           -0.6125     5.3676    -0.7753 N.2     
  17 C17           -0.6460     1.9450     0.2976 C.3     
  18 Cl18          -2.6993     9.6815     6.2465 Cl      
  19 C19           -0.2182    11.3619     5.9787 C.3     
  20 N20            0.0495    10.9747     7.3702 N.3     
  21 C21            0.2108    12.1597     8.2252 C.3     
  22 C22           -2.3409    -0.0409     0.4628 C.3     
  23 C23           -2.5217     0.8076     1.7230 C.3     
  24 C24            0.4281    11.7121     9.6730 C.3     
  25 O25            1.5622    10.8429     9.7329 O.3     
  26 C26            1.4387     9.6779     8.9125 C.3     
  27 C27            1.2317    10.1050     7.4569 C.3     
  28 C28           -0.4893     8.1141     0.6501 C.3     
  29 F29            0.8211     8.4529     0.2964 F       
  30 F30           -1.2885     8.0813    -0.4977 F       
  31 F31           -0.9928     9.0673     1.5419 F       
  32 H32           -2.8334     2.0806    -0.1079 H       
  33 H33            1.6333    10.4755     4.2279 H       
  34 H34            1.5408     8.4653     2.8132 H       
  35 H35           -2.3111     7.5186     4.4375 H       
  36 H36           -0.4133     5.2603     4.3498 H       
  37 H37           -0.5104     3.2811     2.9646 H       
  38 H38           -0.1009     1.6671     1.1996 H       
  39 H39           -0.1767     1.4788    -0.5687 H       
  40 H40            0.5794    12.0142     5.6232 H       
  41 H41           -1.1703    11.8899     5.9253 H       
  42 H42            1.0727    12.7363     7.8893 H       
  43 H43           -0.6861    12.7763     8.1656 H       
  44 H44           -3.2404    -0.4216    -0.0210 H       
  45 H45           -1.4697    -0.6943     0.4167 H       
  46 H46           -1.7694     0.7124     2.5060 H       
  47 H47           -3.5402     0.9851     2.0684 H       
  48 H48            0.6050    12.5850    10.3013 H       
  49 H49           -0.4561    11.1816    10.0266 H       
  50 H50            2.3465     9.0798     8.9907 H       
  51 H51            0.5839     9.0883     9.2439 H       
  52 H52            1.0800     9.2217     6.8365 H       
  53 H53            2.1098    10.6487     7.1087 H       
@<TRIPOS>BOND
   1    1   22 1
   2    1   17 1
   3    1   23 1
   4    1   32 1
   5    2    3 ar
   6    2    4 ar
   7    2   33 1
   8    3    7 ar
   9    3   34 1
  10    4    5 ar
  11    4   19 1
  12    5    6 ar
  13    5   18 1
  14    6    7 ar
  15    6   35 1
  16    7    8 1
  17    8    9 2
  18    8   10 1
  19    9   28 1
  20    9   13 1
  21   10   11 2
  22   10   36 1
  23   11   12 1
  24   11   37 1
  25   12   13 1
  26   12   14 1
  27   13   16 2
  28   14   15 2
  29   14   17 1
  30   15   16 1
  31   17   38 1
  32   17   39 1
  33   19   20 1
  34   19   40 1
  35   19   41 1
  36   20   21 1
  37   20   27 1
  38   21   24 1
  39   21   42 1
  40   21   43 1
  41   22   23 1
  42   22   44 1
  43   22   45 1
  44   23   46 1
  45   23   47 1
  46   24   25 1
  47   24   48 1
  48   24   49 1
  49   25   26 1
  50   26   27 1
  51   26   50 1
  52   26   51 1
  53   27   52 1
  54   27   53 1
  55   28   29 1
  56   28   30 1
  57   28   31 1

#	End of record

