#	Name: ASD01884733
#	Creating user name:	WinNT
#	Creation time:	15. 06. 2019 19:48

#	Modifying user name:	WinNT
#	Modification time:	15. 06. 2019 19:48

#	Program:	/corina/corina34_cracker 3.40 0067  02.08.2006

@<TRIPOS>MOLECULE
ASD01884733
  45   47    0    0    0
SMALL
NO_CHARGES


@<TRIPOS>ATOM
   1 C1            -0.0176     1.3880     0.0662 C.2     
   2 C2             0.0013    -0.0044     0.0598 C.2     
   3 C3            -1.2138    -0.6983     0.0104 C.2     
   4 C4            -2.3896    -0.0113    -0.0309 C.2     
   5 N5            -2.4095     1.3459    -0.0246 N.am    
   6 C6            -1.2678     2.0575     0.0280 C.2     
   7 O7            -1.3080     3.2763     0.0328 O.2     
   8 C8            -3.6945     2.0478    -0.0705 C.3     
   9 C9             1.2049     2.1319     0.1166 C.1     
  10 N10            2.1748     2.7221     0.1566 N.1     
  11 C11           -4.1973     2.2848     1.3550 C.3     
  12 C12           -5.5394     3.0179     1.3072 C.3     
  13 C13           -6.1022     3.1445     2.7243 C.3     
  14 C14           -5.3376     4.4128     0.7120 C.3     
  15 N15           -1.2205    -2.1013     0.0029 N.pl3   
  16 C16           -1.8440    -2.8661     1.0966 C.3     
  17 C17           -0.9156    -4.0435     1.4270 C.3     
  18 O18           -0.7362    -4.8333     0.2490 O.3     
  19 C19           -0.3989    -4.1893    -0.8996 C.ar    
  20 C20           -0.6386    -2.8246    -1.0498 C.ar    
  21 C21            0.1855    -4.8986    -1.9378 C.ar    
  22 C22            0.5292    -4.2524    -3.1106 C.ar    
  23 C23            0.2929    -2.8979    -3.2558 C.ar    
  24 C24           -0.2928    -2.1823    -2.2286 C.ar    
  25 H25            0.9383    -0.5405     0.0920 H       
  26 H26           -3.3215    -0.5557    -0.0695 H       
  27 H27           -3.5675     3.0057    -0.5749 H       
  28 H28           -4.4195     1.4434    -0.6157 H       
  29 H29           -4.3243     1.3269     1.8594 H       
  30 H30           -3.4724     2.8892     1.9002 H       
  31 H31           -6.2384     2.4561     0.6875 H       
  32 H32           -5.4032     3.7062     3.3439 H       
  33 H33           -7.0583     3.6668     2.6902 H       
  34 H34           -6.2459     2.1507     3.1483 H       
  35 H35           -4.9367     4.3226    -0.2976 H       
  36 H36           -6.2937     4.9351     0.6779 H       
  37 H37           -4.6386     4.9746     1.3317 H       
  38 H38           -1.9605    -2.2294     1.9736 H       
  39 H39           -2.8170    -3.2403     0.7783 H       
  40 H40            0.0495    -3.6645     1.7634 H       
  41 H41           -1.3642    -4.6535     2.2111 H       
  42 H42            0.3726    -5.9568    -1.8300 H       
  43 H43            0.9846    -4.8081    -3.9170 H       
  44 H44            0.5628    -2.3986    -4.1747 H       
  45 H45           -0.4772    -1.1243    -2.3427 H       
@<TRIPOS>BOND
   1    1    2 2
   2    1    9 1
   3    1    6 1
   4    2    3 1
   5    2   25 1
   6    3    4 2
   7    3   15 1
   8    4    5 1
   9    4   26 1
  10    5    8 1
  11    5    6 am
  12    6    7 2
  13    8   11 1
  14    8   27 1
  15    8   28 1
  16    9   10 3
  17   11   12 1
  18   11   29 1
  19   11   30 1
  20   12   13 1
  21   12   14 1
  22   12   31 1
  23   13   32 1
  24   13   33 1
  25   13   34 1
  26   14   35 1
  27   14   36 1
  28   14   37 1
  29   15   16 1
  30   15   20 1
  31   16   17 1
  32   16   38 1
  33   16   39 1
  34   17   18 1
  35   17   40 1
  36   17   41 1
  37   18   19 1
  38   19   20 ar
  39   19   21 ar
  40   20   24 ar
  41   21   22 ar
  42   21   42 1
  43   22   23 ar
  44   22   43 1
  45   23   24 ar
  46   23   44 1
  47   24   45 1

#	End of record

