#	Name: ASD02690072
#	Creating user name:	WinNT
#	Creation time:	15. 06. 2019 20:26

#	Modifying user name:	WinNT
#	Modification time:	15. 06. 2019 20:26

#	Program:	/corina/corina34_cracker 3.40 0067  02.08.2006

@<TRIPOS>MOLECULE
ASD02690072
  49   52    0    0    0
SMALL
NO_CHARGES


@<TRIPOS>ATOM
   1 C1             0.0045     1.1769     0.0573 C.2     
   2 O2             0.0136    -0.0334    -0.0199 O.2     
   3 N3             4.0242     2.2107    -0.8694 N.3     
   4 C4             3.7539     1.8008     0.5145 C.3     
   5 C5             2.4280     1.0387     0.5725 C.3     
   6 C6             1.3030     1.9416     0.0589 C.3     
   7 C7             1.6325     2.3936    -1.3665 C.3     
   8 C8             2.9814     3.1164    -1.3683 C.3     
   9 C9             6.4010     1.9050    -0.3600 C.3     
  10 C10            5.3540     2.8236    -0.9868 C.3     
  11 C11            5.7048     3.0171    -2.4668 C.3     
  12 C12            6.9707     3.8672    -2.5545 C.3     
  13 C13            8.0526     3.2987    -1.6740 C.ar    
  14 C14            9.3587     3.7108    -1.9062 C.ar    
  15 C15           10.3938     3.2298    -1.1318 C.ar    
  16 C16           10.1301     2.3306    -0.1151 C.ar    
  17 C17            8.8341     1.9192     0.1163 C.ar    
  18 C18            7.7905     2.4007    -0.6640 C.ar    
  19 O19            5.9356     1.7457    -3.0770 O.3     
  20 C20           -2.4891     1.1997     0.1367 C.ar    
  21 C21           -1.2731     1.8981     0.1430 C.ar    
  22 C22           -1.2986     3.2976     0.2332 C.ar    
  23 C23           -2.5274     3.9272     0.3121 C.ar    
  24 C24           -3.6828     3.1661     0.2999 C.ar    
  25 N25           -3.6337     1.8502     0.2147 N.ar    
  26 F26           -2.4882    -0.1482     0.0450 F       
  27 H27            4.5591     1.1558     0.8661 H       
  28 H28            3.6929     2.6845     1.1497 H       
  29 H29            2.4929     0.1475    -0.0516 H       
  30 H30            2.2200     0.7482     1.6023 H       
  31 H31            1.2114     2.8136     0.7065 H       
  32 H32            1.6849     1.5237    -2.0211 H       
  33 H33            0.8562     3.0711    -1.7220 H       
  34 H34            2.9241     3.9939    -0.7243 H       
  35 H35            3.2257     3.4270    -2.3841 H       
  36 H36            6.2567     1.8798     0.7201 H       
  37 H37            6.2825     0.8985    -0.7614 H       
  38 H38            5.3600     3.7878    -0.4784 H       
  39 H39            4.8853     3.5254    -2.9749 H       
  40 H40            7.3202     3.8860    -3.5867 H       
  41 H41            6.7437     4.8840    -2.2339 H       
  42 H42            9.5654     4.4134    -2.7000 H       
  43 H43           11.4067     3.5541    -1.3191 H       
  44 H44           10.9362     1.9514     0.4956 H       
  45 H45            8.6290     1.2164     0.9103 H       
  46 H46            6.1628     1.7953    -4.0156 H       
  47 H47           -0.3820     3.8689     0.2412 H       
  48 H48           -2.5846     5.0033     0.3829 H       
  49 H49           -4.6423     3.6580     0.3615 H       
@<TRIPOS>BOND
   1    1    2 2
   2    1    6 1
   3    1   21 1
   4    3    4 1
   5    3    8 1
   6    3   10 1
   7    4    5 1
   8    4   27 1
   9    4   28 1
  10    5    6 1
  11    5   29 1
  12    5   30 1
  13    6    7 1
  14    6   31 1
  15    7    8 1
  16    7   32 1
  17    7   33 1
  18    8   34 1
  19    8   35 1
  20    9   10 1
  21    9   18 1
  22    9   36 1
  23    9   37 1
  24   10   11 1
  25   10   38 1
  26   11   12 1
  27   11   19 1
  28   11   39 1
  29   12   13 1
  30   12   40 1
  31   12   41 1
  32   13   14 ar
  33   13   18 ar
  34   14   15 ar
  35   14   42 1
  36   15   16 ar
  37   15   43 1
  38   16   17 ar
  39   16   44 1
  40   17   18 ar
  41   17   45 1
  42   19   46 1
  43   20   21 ar
  44   20   25 ar
  45   20   26 1
  46   21   22 ar
  47   22   23 ar
  48   22   47 1
  49   23   24 ar
  50   23   48 1
  51   24   25 ar
  52   24   49 1

#	End of record

