#	Name: ASD01900816
#	Creating user name:	WinNT
#	Creation time:	15. 06. 2019 19:52

#	Modifying user name:	WinNT
#	Modification time:	15. 06. 2019 19:52

#	Program:	/corina/corina34_cracker 3.40 0067  02.08.2006

@<TRIPOS>MOLECULE
ASD01900816
  50   52    0    0    0
SMALL
NO_CHARGES


@<TRIPOS>ATOM
   1 N1             0.6520     1.6045     0.5513 N.am    
   2 C2             1.0414     0.2856     0.8124 C.ar    
   3 C3             2.7742    -1.3391     1.1467 C.ar    
   4 C4             2.3896    -0.0381     0.8891 C.ar    
   5 C5             0.0790    -0.6984     1.0005 C.ar    
   6 C6             0.4634    -1.9995     1.2586 C.ar    
   7 C7             1.8132    -2.3238     1.3300 C.ar    
   8 Cl8           -0.7388    -3.2295     1.4943 Cl      
   9 C9             1.3538     2.3540    -0.3219 C.2     
  10 C10            0.9099     3.7260    -0.6408 C.ar    
  11 O11            2.3523     1.9005    -0.8470 O.2     
  12 C12            1.5687     4.4571    -1.6387 C.ar    
  13 C13            1.1328     5.7514    -1.9244 C.ar    
  14 C14            0.0652     6.2595    -1.2078 C.ar    
  15 C15           -0.5380     5.4765    -0.2336 C.ar    
  16 N16           -0.1151     4.2580     0.0163 N.ar    
  17 N17            2.6373     3.9029    -2.3310 N.pl3   
  18 N18            2.2037    -3.6440     1.5910 N.am    
  19 C19            2.8438    -5.8774     1.2806 C.3     
  20 C20            2.4306    -4.5694     0.6428 C.2     
  21 C21            2.4237    -4.1923     2.9345 C.3     
  22 C22            3.2386    -5.4875     2.7227 C.3     
  23 O23            2.3195    -4.3829    -0.5506 O.2     
  24 C24            2.8144    -6.5692     3.7180 C.3     
  25 C25            3.6211    -7.8436     3.4608 C.3     
  26 C26            5.0991    -7.5798     3.7552 C.3     
  27 C27            3.1114    -8.9624     4.3715 C.3     
  28 H28           -0.1252     1.9778     0.9957 H       
  29 H29            3.8229    -1.5904     1.2056 H       
  30 H30            3.1376     0.7279     0.7470 H       
  31 H31           -0.9696    -0.4458     0.9453 H       
  32 H32            1.6181     6.3425    -2.6870 H       
  33 H33           -0.2963     7.2581    -1.4043 H       
  34 H34           -1.3719     5.8741     0.3258 H       
  35 H35            2.7421     2.9394    -2.3708 H       
  36 H36            3.2789     4.4792    -2.7749 H       
  37 H37            2.0095    -6.5790     1.2872 H       
  38 H38            3.6984    -6.3045     0.7559 H       
  39 H39            2.9892    -3.4860     3.5422 H       
  40 H40            1.4696    -4.4204     3.4096 H       
  41 H41            4.3084    -5.2912     2.7946 H       
  42 H42            2.9997    -6.2209     4.7341 H       
  43 H43            1.7522    -6.7804     3.5944 H       
  44 H44            3.5059    -8.1424     2.4189 H       
  45 H45            5.2143    -7.2810     4.7971 H       
  46 H46            5.6738    -8.4877     3.5720 H       
  47 H47            5.4622    -6.7828     3.1064 H       
  48 H48            2.0584    -9.1503     4.1618 H       
  49 H49            3.6861    -9.8703     4.1882 H       
  50 H50            3.2266    -8.6636     5.4134 H       
@<TRIPOS>BOND
   1    1    2 1
   2    1    9 am
   3    1   28 1
   4    2    5 ar
   5    2    4 ar
   6    3    4 ar
   7    3    7 ar
   8    3   29 1
   9    4   30 1
  10    5    6 ar
  11    5   31 1
  12    6    7 ar
  13    6    8 1
  14    7   18 1
  15    9   10 1
  16    9   11 2
  17   10   12 ar
  18   10   16 ar
  19   12   13 ar
  20   12   17 1
  21   13   14 ar
  22   13   32 1
  23   14   15 ar
  24   14   33 1
  25   15   16 ar
  26   15   34 1
  27   17   35 1
  28   17   36 1
  29   18   21 1
  30   18   20 am
  31   19   20 1
  32   19   22 1
  33   19   37 1
  34   19   38 1
  35   20   23 2
  36   21   22 1
  37   21   39 1
  38   21   40 1
  39   22   24 1
  40   22   41 1
  41   24   25 1
  42   24   42 1
  43   24   43 1
  44   25   27 1
  45   25   26 1
  46   25   44 1
  47   26   45 1
  48   26   46 1
  49   26   47 1
  50   27   48 1
  51   27   49 1
  52   27   50 1

#	End of record

