#	Name: ASD01914039
#	Creating user name:	WinNT
#	Creation time:	15. 06. 2019 20:02

#	Modifying user name:	WinNT
#	Modification time:	15. 06. 2019 20:02

#	Program:	/corina/corina34_cracker 3.40 0067  02.08.2006

@<TRIPOS>MOLECULE
ASD01914039
  51   53    0    0    0
SMALL
NO_CHARGES


@<TRIPOS>ATOM
   1 C1            -0.0167     1.3794     0.0096 C.ar    
   2 C2             0.0021    -0.0041     0.0020 C.ar    
   3 C3             1.2086    -0.6813    -0.0127 C.ar    
   4 C4             2.3802     1.4101    -0.0131 C.ar    
   5 C5             1.1696     2.0873     0.0021 C.ar    
   6 O6             3.5485     2.1048    -0.0210 O.3     
   7 C7             4.7567     1.3420    -0.0367 C.3     
   8 C8             5.9399     2.2753    -0.0435 C.ar    
   9 N9             7.1607     1.7752    -0.0579 N.ar    
  10 C10            8.2282     2.5464    -0.0644 C.ar    
  11 C11            8.0999     3.9357    -0.0557 C.ar    
  12 C12            6.8169     4.4963    -0.0403 C.ar    
  13 C13            5.7282     3.6425    -0.0402 C.ar    
  14 C14            9.2984     4.8013    -0.0620 C.2     
  15 N15           10.5280     4.2497    -0.0763 N.am    
  16 O16            9.1748     6.0105    -0.0543 O.2     
  17 C17            2.3970     0.0230    -0.0199 C.ar    
  18 C18           11.7156     5.1074    -0.0826 C.3     
  19 Cl19          -1.4900    -0.8913     0.0116 Cl      
  20 C20           12.0422     5.5158    -1.5205 C.3     
  21 C21           12.9000     4.3429     0.5120 C.3     
  22 C22           14.1403     5.2387     0.5054 C.3     
  23 C23           15.3248     4.4742     1.1000 C.3     
  24 C24           14.9982     4.0658     2.5379 C.3     
  25 C25           13.7579     3.1700     2.5444 C.3     
  26 C26           12.5734     3.9345     1.9498 C.3     
  27 H27           -0.9594     1.9063     0.0170 H       
  28 H28            1.2212    -1.7612    -0.0183 H       
  29 H29            1.1546     3.1671     0.0077 H       
  30 H30            4.7984     0.7090     0.8497 H       
  31 H31            4.7810     0.7180    -0.9301 H       
  32 H32            9.2114     2.0997    -0.0763 H       
  33 H33            6.6806     5.5677    -0.0332 H       
  34 H34            4.7237     4.0390    -0.0286 H       
  35 H35           10.6266     3.2847    -0.0825 H       
  36 H36            3.3385    -0.5060    -0.0307 H       
  37 H37           11.5227     5.9993     0.5135 H       
  38 H38           11.1984     6.0604    -1.9441 H       
  39 H39           12.9258     6.1540    -1.5252 H       
  40 H40           12.2350     4.6238    -2.1166 H       
  41 H41           13.0929     3.4509    -0.0842 H       
  42 H42           14.3730     5.5296    -0.5190 H       
  43 H43           13.9475     6.1306     1.1015 H       
  44 H44           15.5176     3.5822     0.5039 H       
  45 H45           16.2084     5.1123     1.0953 H       
  46 H46           15.8420     3.5211     2.9614 H       
  47 H47           14.8053     4.9577     3.1340 H       
  48 H48           13.9507     2.2781     1.9483 H       
  49 H49           13.5252     2.8791     3.5688 H       
  50 H50           12.3806     4.8265     2.5460 H       
  51 H51           11.6898     3.2963     1.9545 H       
@<TRIPOS>BOND
   1    1    2 ar
   2    1    5 ar
   3    1   27 1
   4    2    3 ar
   5    2   19 1
   6    3   17 ar
   7    3   28 1
   8    4    5 ar
   9    4    6 1
  10    4   17 ar
  11    5   29 1
  12    6    7 1
  13    7    8 1
  14    7   30 1
  15    7   31 1
  16    8    9 ar
  17    8   13 ar
  18    9   10 ar
  19   10   11 ar
  20   10   32 1
  21   11   12 ar
  22   11   14 1
  23   12   13 ar
  24   12   33 1
  25   13   34 1
  26   14   15 am
  27   14   16 2
  28   15   18 1
  29   15   35 1
  30   17   36 1
  31   18   20 1
  32   18   21 1
  33   18   37 1
  34   20   38 1
  35   20   39 1
  36   20   40 1
  37   21   22 1
  38   21   26 1
  39   21   41 1
  40   22   23 1
  41   22   42 1
  42   22   43 1
  43   23   24 1
  44   23   44 1
  45   23   45 1
  46   24   25 1
  47   24   46 1
  48   24   47 1
  49   25   26 1
  50   25   48 1
  51   25   49 1
  52   26   50 1
  53   26   51 1

#	End of record

