#	Name: ASD01884274
#	Creating user name:	WinNT
#	Creation time:	15. 06. 2019 19:47

#	Modifying user name:	WinNT
#	Modification time:	15. 06. 2019 19:47

#	Program:	/corina/corina34_cracker 3.40 0067  02.08.2006

@<TRIPOS>MOLECULE
ASD01884274
  46   50    0    0    0
SMALL
NO_CHARGES


@<TRIPOS>ATOM
   1 C1             2.6674    -1.7356    -4.6749 C.ar    
   2 C2             3.2183    -1.9529    -3.4146 C.ar    
   3 C3             4.4944    -1.4682    -3.1441 C.ar    
   4 C4             5.1697    -0.7826    -4.1513 C.ar    
   5 C5             4.5573    -0.6061    -5.3778 C.ar    
   6 N6             3.3485    -1.0759    -5.6057 N.ar    
   7 C7             1.3578    -2.2327    -4.9723 C.1     
   8 N8             0.3189    -2.6271    -5.2083 N.1     
   9 O9             5.0669    -1.6584    -1.9281 O.3     
  10 C10            4.3582    -2.3358    -0.9889 C.ar    
  11 C11            4.2799    -3.7194    -1.0481 C.ar    
  12 C12            3.5554    -4.4153    -0.0876 C.ar    
  13 C13            2.9044    -3.7082     0.9418 C.ar    
  14 C14            2.9931    -2.3155     0.9872 C.ar    
  15 C15            3.7191    -1.6394     0.0313 C.ar    
  16 C16            2.1762    -7.8057    -0.0609 C.ar    
  17 C17            3.2813    -8.6420    -0.2530 C.ar    
  18 C18            4.5363    -8.0261    -0.3960 C.ar    
  19 C19            4.6214    -6.6511    -0.3416 C.ar    
  20 C20            3.4682    -5.8930    -0.1466 C.ar    
  21 N21            2.2913    -6.4936    -0.0133 N.ar    
  22 S22            0.7746    -8.8790     0.0724 S.3     
  23 C23            1.7110   -10.3686    -0.1309 C.2     
  24 N24            2.9846    -9.9906    -0.2775 N.am    
  25 C25            4.0424   -10.9855    -0.4708 C.3     
  26 C26            4.6066   -11.4009     0.8893 C.3     
  27 C27            5.6461   -12.5234     0.9100 C.3     
  28 C28            6.0751   -11.0786     1.1732 C.3     
  29 F29            5.6279   -13.4006     1.9997 F       
  30 F30            6.0078   -13.0915    -0.3163 F       
  31 C31            2.1546    -4.4142     1.9368 C.1     
  32 N32            1.5598    -4.9742     2.7262 N.1     
  33 O33            1.2819   -11.5075    -0.1320 O.2     
  34 H34            2.6637    -2.4889    -2.6587 H       
  35 H35            6.1614    -0.3926    -3.9755 H       
  36 H36            5.0781    -0.0751    -6.1609 H       
  37 H37            4.7812    -4.2555    -1.8404 H       
  38 H38            2.4958    -1.7684     1.7744 H       
  39 H39            3.7892    -0.5624     0.0722 H       
  40 H40            5.4238    -8.6229    -0.5464 H       
  41 H41            5.5787    -6.1630    -0.4495 H       
  42 H42            3.6311   -11.8596    -0.9758 H       
  43 H43            4.8386   -10.5558    -1.0786 H       
  44 H44            3.9085   -11.3460     1.7246 H       
  45 H45            6.6392   -10.5706     0.3910 H       
  46 H46            6.3433   -10.8115     2.1954 H       
@<TRIPOS>BOND
   1    1    2 ar
   2    1    6 ar
   3    1    7 1
   4    2    3 ar
   5    2   34 1
   6    3    4 ar
   7    3    9 1
   8    4    5 ar
   9    4   35 1
  10    5    6 ar
  11    5   36 1
  12    7    8 3
  13    9   10 1
  14   10   11 ar
  15   10   15 ar
  16   11   12 ar
  17   11   37 1
  18   12   13 ar
  19   12   20 1
  20   13   14 ar
  21   13   31 1
  22   14   15 ar
  23   14   38 1
  24   15   39 1
  25   16   17 ar
  26   16   21 ar
  27   16   22 1
  28   17   18 ar
  29   17   24 1
  30   18   19 ar
  31   18   40 1
  32   19   20 ar
  33   19   41 1
  34   20   21 ar
  35   22   23 1
  36   23   24 am
  37   23   33 2
  38   24   25 1
  39   25   26 1
  40   25   42 1
  41   25   43 1
  42   26   27 1
  43   26   28 1
  44   26   44 1
  45   27   28 1
  46   27   29 1
  47   27   30 1
  48   28   45 1
  49   28   46 1
  50   31   32 3

#	End of record

