#	Name: ASD01948290
#	Creating user name:	WinNT
#	Creation time:	15. 06. 2019 20:14

#	Modifying user name:	WinNT
#	Modification time:	15. 06. 2019 20:14

#	Program:	/corina/corina34_cracker 3.40 0067  02.08.2006

@<TRIPOS>MOLECULE
ASD01948290
  52   55    0    0    0
SMALL
NO_CHARGES


@<TRIPOS>ATOM
   1 C1             1.1524     5.6517     2.6451 C.ar    
   2 C2             1.7704     5.2938     3.8303 C.ar    
   3 C3             2.7554     4.3230     3.8346 C.ar    
   4 C4             3.1261     3.7065     2.6548 C.ar    
   5 C5             2.5088     4.0618     1.4634 C.ar    
   6 C6             1.5181     5.0387     1.4612 C.ar    
   7 N7             3.7066     1.2165     0.3748 N.am    
   8 C8             3.9402     2.5543     0.2517 C.2     
   9 N9             2.8825     3.4396     0.2674 N.pl3   
  10 C10            4.7233     0.3347     0.3621 C.2     
  11 C11            6.0417     0.7766     0.2220 C.2     
  12 C12            6.2989     2.1274     0.0965 C.2     
  13 C13            5.2321     3.0284     0.1117 C.2     
  14 N14            5.4698     4.4096    -0.0152 N.am    
  15 I15            1.2133     6.2252     5.6223 I       
  16 O16            4.4921    -0.8599     0.4743 O.2     
  17 F17            0.9142     5.3873     0.3041 F       
  18 C18            2.3322     0.7334     0.5288 C.3     
  19 S19            7.0017     4.9620    -0.3163 S.o2    
  20 O20            6.8647     6.3760    -0.3464 O.2     
  21 O21            7.8039     4.3245     0.6682 O.2     
  22 C22            7.3958     4.3253    -1.9685 C.3     
  23 C23            7.1761    -0.2153     0.2090 C.3     
  24 C24            8.7622     4.7910    -2.4984 C.3     
  25 C25            8.9423     3.3693    -3.0564 C.3     
  26 C26            7.9737     2.9002    -1.9579 C.3     
  27 C27            7.2073    -1.2675     1.3194 C.3     
  28 C28            6.8364    -1.6729    -0.1086 C.3     
  29 C29            1.7204     0.4873    -0.8518 C.3     
  30 F30            2.4081    -0.5517    -1.4881 F       
  31 F31            0.3736     0.1364    -0.7093 F       
  32 F32            1.8201     1.6519    -1.6204 F       
  33 H33            0.3807     6.4073     2.6456 H       
  34 H34            3.2358     4.0465     4.7615 H       
  35 H35            3.8959     2.9490     2.6597 H       
  36 H36            2.3979     3.6307    -0.5508 H       
  37 H37            7.3130     2.4828    -0.0121 H       
  38 H38            4.7364     5.0381     0.0738 H       
  39 H39            2.3356    -0.1974     1.0959 H       
  40 H40            1.7419     1.4803     1.0598 H       
  41 H41            6.5817     4.4624    -2.6803 H       
  42 H42            8.1320     0.1683    -0.1478 H       
  43 H43            8.6931     5.5575    -3.2703 H       
  44 H44            9.4725     5.0443    -1.7113 H       
  45 H45            8.5512     3.2438    -4.0660 H       
  46 H46            9.9540     2.9802    -2.9418 H       
  47 H47            8.4684     2.6367    -1.0230 H       
  48 H48            7.2680     2.1403    -2.2934 H       
  49 H49            8.1836    -1.5764     1.6928 H       
  50 H50            6.4072    -1.2423     2.0592 H       
  51 H51            5.7924    -1.9144    -0.3081 H       
  52 H52            7.5688    -2.2485    -0.6746 H       
@<TRIPOS>BOND
   1    1    2 ar
   2    1    6 ar
   3    1   33 1
   4    2    3 ar
   5    2   15 1
   6    3    4 ar
   7    3   34 1
   8    4    5 ar
   9    4   35 1
  10    5    6 ar
  11    5    9 1
  12    6   17 1
  13    7    8 1
  14    7   10 am
  15    7   18 1
  16    8    9 1
  17    8   13 2
  18    9   36 1
  19   10   11 1
  20   10   16 2
  21   11   12 2
  22   11   23 1
  23   12   13 1
  24   12   37 1
  25   13   14 1
  26   14   19 am
  27   14   38 1
  28   18   29 1
  29   18   39 1
  30   18   40 1
  31   19   20 2
  32   19   21 2
  33   19   22 1
  34   22   24 1
  35   22   26 1
  36   22   41 1
  37   23   27 1
  38   23   28 1
  39   23   42 1
  40   24   25 1
  41   24   43 1
  42   24   44 1
  43   25   26 1
  44   25   45 1
  45   25   46 1
  46   26   47 1
  47   26   48 1
  48   27   28 1
  49   27   49 1
  50   27   50 1
  51   28   51 1
  52   28   52 1
  53   29   30 1
  54   29   31 1
  55   29   32 1

#	End of record

