#	Name: ASD01180178
#	Creating user name:	WinNT
#	Creation time:	15. 06. 2019 19:06

#	Modifying user name:	WinNT
#	Modification time:	15. 06. 2019 19:06

#	Program:	/corina/corina34_cracker 3.40 0067  02.08.2006

@<TRIPOS>MOLECULE
ASD01180178
  62   65    0    0    0
SMALL
NO_CHARGES


@<TRIPOS>ATOM
   1 C1             0.4857     1.3644     0.6385 C.ar    
   2 C2             0.3963    -0.0073     0.5149 C.ar    
   3 C3             1.5569    -0.7736     0.4300 C.ar    
   4 C4             2.8021    -0.1497     0.4703 C.ar    
   5 C5             2.8798     1.2227     0.5941 C.ar    
   6 C6             1.7244     1.9786     0.6780 C.ar    
   7 C7             1.8156     3.4768     0.8130 C.3     
   8 F8             1.8265     4.0598    -0.4587 F       
   9 F9             0.7124     3.9481     1.5327 F       
  10 F10            2.9926     3.8132     1.4903 F       
  11 C11            1.4671    -2.2489     0.2976 C.ar    
  12 C12            2.6277    -3.0152     0.2126 C.ar    
  13 C13            2.5384    -4.3870     0.0895 C.ar    
  14 C14            1.2996    -5.0012     0.0499 C.ar    
  15 C15            0.1443    -4.2453     0.1339 C.ar    
  16 C16            0.2220    -2.8734     0.2634 C.ar    
  17 C17            1.2084    -6.4993    -0.0856 C.3     
  18 C18            0.9464    -7.1206     1.2878 C.3     
  19 N19            0.1111    -6.8416    -0.9938 N.pl3   
  20 C20            0.3315    -6.8864    -2.3600 C.ar    
  21 N21           -0.6361    -7.3034    -3.1650 N.ar    
  22 C22           -0.4714    -7.3626    -4.4701 C.ar    
  23 C23            0.7406    -6.9840    -5.0494 C.ar    
  24 C24            1.7821    -6.5385    -4.2208 C.ar    
  25 C25            1.5657    -6.4871    -2.8705 C.ar    
  26 C26            0.9244    -7.0515    -6.5117 C.2     
  27 N27           -0.0821    -7.4813    -7.2983 N.am    
  28 O28            1.9840    -6.7196    -7.0072 O.2     
  29 C29            0.1005    -7.5483    -8.7504 C.3     
  30 C30           -1.1837    -8.0646    -9.4025 C.3     
  31 C31           -0.9959    -8.1336   -10.8962 C.2     
  32 O32           -1.9983    -8.5616   -11.6796 O.3     
  33 O33            0.0570    -7.8037   -11.3886 O.2     
  34 C34            0.8504    -8.6552     1.2615 C.3     
  35 C35            1.6405    -8.6488     2.5808 C.3     
  36 C36            2.2160    -7.2931     2.1382 C.3     
  37 H37           -0.4133     1.9598     0.6999 H       
  38 H38           -0.5714    -0.4859     0.4845 H       
  39 H39            3.7049    -0.7390     0.4052 H       
  40 H40            3.8444     1.7074     0.6254 H       
  41 H41            3.5954    -2.5366     0.2427 H       
  42 H42            3.4373    -4.9820     0.0236 H       
  43 H43           -0.8204    -4.7299     0.1025 H       
  44 H44           -0.6807    -2.2841     0.3289 H       
  45 H45            2.1456    -6.8856    -0.4863 H       
  46 H46            0.1249    -6.6408     1.8197 H       
  47 H47           -0.7700    -7.0368    -0.6381 H       
  48 H48           -1.2804    -7.7071    -5.0972 H       
  49 H49            2.7314    -6.2388    -4.6398 H       
  50 H50            2.3468    -6.1489    -2.2057 H       
  51 H51           -0.9274    -7.7461    -6.9030 H       
  52 H52            0.3285    -6.5540    -9.1342 H       
  53 H53            0.9231    -8.2248    -8.9823 H       
  54 H54           -1.4118    -9.0590    -9.0187 H       
  55 H55           -2.0063    -7.3882    -9.1706 H       
  56 H56           -1.8307    -8.5885   -12.6315 H       
  57 H57           -0.1677    -9.0308     1.3641 H       
  58 H58            1.3896    -9.1123     0.4318 H       
  59 H59            1.0095    -8.5868     3.4674 H       
  60 H60            2.3876    -9.4399     2.6461 H       
  61 H61            3.1286    -7.3778     1.5482 H       
  62 H62            2.3004    -6.5691     2.9487 H       
@<TRIPOS>BOND
   1    1    2 ar
   2    1    6 ar
   3    1   37 1
   4    2    3 ar
   5    2   38 1
   6    3    4 ar
   7    3   11 1
   8    4    5 ar
   9    4   39 1
  10    5    6 ar
  11    5   40 1
  12    6    7 1
  13    7    8 1
  14    7    9 1
  15    7   10 1
  16   11   12 ar
  17   11   16 ar
  18   12   13 ar
  19   12   41 1
  20   13   14 ar
  21   13   42 1
  22   14   15 ar
  23   14   17 1
  24   15   16 ar
  25   15   43 1
  26   16   44 1
  27   17   18 1
  28   17   19 1
  29   17   45 1
  30   18   34 1
  31   18   36 1
  32   18   46 1
  33   19   20 1
  34   19   47 1
  35   20   21 ar
  36   20   25 ar
  37   21   22 ar
  38   22   23 ar
  39   22   48 1
  40   23   24 ar
  41   23   26 1
  42   24   25 ar
  43   24   49 1
  44   25   50 1
  45   26   27 am
  46   26   28 2
  47   27   29 1
  48   27   51 1
  49   29   30 1
  50   29   52 1
  51   29   53 1
  52   30   31 1
  53   30   54 1
  54   30   55 1
  55   31   32 1
  56   31   33 2
  57   32   56 1
  58   34   35 1
  59   34   57 1
  60   34   58 1
  61   35   36 1
  62   35   59 1
  63   35   60 1
  64   36   61 1
  65   36   62 1

#	End of record

