#	Name: ASD01903301
#	Creating user name:	WinNT
#	Creation time:	15. 06. 2019 19:54

#	Modifying user name:	WinNT
#	Modification time:	15. 06. 2019 19:54

#	Program:	/corina/corina34_cracker 3.40 0067  02.08.2006

@<TRIPOS>MOLECULE
ASD01903301
  30   33    0    0    0
SMALL
NO_CHARGES


@<TRIPOS>ATOM
   1 N1            -0.0111     0.9658     0.0074 N.pl3   
   2 H2             0.0454    -0.0025     0.0035 H       
   3 C3             1.1476     1.7282    -0.0089 C.2     
   4 C4            -1.2545     1.5901     0.0234 C.ar    
   5 N5            -1.3255     2.9084     0.1244 N.ar    
   6 C6            -2.4841     3.5396     0.1427 C.ar    
   7 C7            -3.6720     2.8415     0.0570 C.ar    
   8 C8            -3.6413     1.4572    -0.0503 C.ar    
   9 C9            -2.4118     0.8241    -0.0727 C.ar    
  10 S10            2.7863     1.0910     0.0955 S.3     
  11 C11            3.4315     2.7210     0.0027 C.2     
  12 C12            2.3845     3.5909    -0.1104 C.2     
  13 N13            1.1928     3.0210    -0.1089 N.2     
  14 C14            4.8759     3.1437     0.0500 C.3     
  15 C15            5.1146     4.4128    -0.7696 C.3     
  16 C16            4.0109     5.4099    -0.5457 C.2     
  17 C17            2.7190     5.0412    -0.2465 C.2     
  18 N18            4.0353     6.7489    -0.5862 N.pl3   
  19 N19            2.7384     7.2202    -0.3246 N.2     
  20 C20            1.9502     6.1892    -0.1224 C.2     
  21 H21           -2.5034     4.6162     0.2263 H       
  22 H22           -4.6157     3.3666     0.0735 H       
  23 H23           -4.5567     0.8883    -0.1184 H       
  24 H24           -2.3513    -0.2510    -0.1555 H       
  25 H25            5.1589     3.3301     1.0860 H       
  26 H26            5.4955     2.3403    -0.3484 H       
  27 H27            6.0648     4.8572    -0.4737 H       
  28 H28            5.1547     4.1539    -1.8277 H       
  29 H29            4.8145     7.2982    -0.7651 H       
  30 H30            0.8942     6.2281     0.1006 H       
@<TRIPOS>BOND
   1    1    2 1
   2    1    3 1
   3    1    4 1
   4    3   10 1
   5    3   13 2
   6    4    5 ar
   7    4    9 ar
   8    5    6 ar
   9    6    7 ar
  10    6   21 1
  11    7    8 ar
  12    7   22 1
  13    8    9 ar
  14    8   23 1
  15    9   24 1
  16   10   11 1
  17   11   12 2
  18   11   14 1
  19   12   13 1
  20   12   17 1
  21   14   15 1
  22   14   25 1
  23   14   26 1
  24   15   16 1
  25   15   27 1
  26   15   28 1
  27   16   17 2
  28   16   18 1
  29   17   20 1
  30   18   19 1
  31   18   29 1
  32   19   20 2
  33   20   30 1

#	End of record

