#	Name: ASD01680074
#	Creating user name:	WinNT
#	Creation time:	15. 06. 2019 19:22

#	Modifying user name:	WinNT
#	Modification time:	15. 06. 2019 19:22

#	Program:	/corina/corina34_cracker 3.40 0067  02.08.2006

@<TRIPOS>MOLECULE
ASD01680074
  88   91    0    0    0
SMALL
NO_CHARGES


@<TRIPOS>ATOM
   1 N1             1.5277     4.4785     3.1043 N.am    
   2 C2             0.9240     3.1452     2.9274 C.3     
   3 C3             2.0412     2.1482     3.3242 C.3     
   4 C4             3.3042     2.8590     2.7701 C.3     
   5 C5             2.9887     4.3522     2.9987 C.3     
   6 C6             0.8520     5.6243     3.3211 C.2     
   7 O7            -0.3626     5.6293     3.2858 O.2     
   8 O8             1.5227     6.7633     3.5768 O.3     
   9 C9            -0.2867     2.9825     3.8486 C.3     
  10 N10            0.0808     3.3736     5.2118 N.pl3   
  11 C11           -0.8842     3.3975     6.2120 C.ar    
  12 C12           -2.1973     3.0490     5.9117 C.ar    
  13 C13           -3.1472     3.0772     6.9165 C.ar    
  14 C14           -2.7508     3.4545     8.1929 C.ar    
  15 C15           -1.4308     3.7878     8.4201 C.ar    
  16 N16           -0.5446     3.7467     7.4431 N.ar    
  17 O17            4.4666     2.4697     3.5046 O.3     
  18 C18            5.6718     2.4869     2.7370 C.3     
  19 C19            6.8271     2.0616     3.6063 C.2     
  20 N20            8.0715     2.0029     3.0920 N.am    
  21 O21            6.6370     1.7723     4.7686 O.2     
  22 C22            9.1945     1.5894     3.9371 C.3     
  23 C23           10.4849     1.6079     3.1153 C.3     
  24 C24           11.6578     1.1761     3.9978 C.3     
  25 N25           11.4761    -0.2200     4.4028 N.am    
  26 S26           11.9686    -0.7176     5.9035 S.o2    
  27 O27           11.6275    -2.0936     6.0020 O.2     
  28 O28           13.2929    -0.2311     6.0731 O.2     
  29 C29           10.9728     0.1277     7.0861 C.ar    
  30 C30           11.3677     1.3625     7.5658 C.ar    
  31 C31           10.5865     2.0256     8.4936 C.ar    
  32 C32            9.4102     1.4542     8.9414 C.ar    
  33 C33            9.0148     0.2197     8.4610 C.ar    
  34 C34            9.7938    -0.4414     7.5300 C.ar    
  35 C35            9.3602    -1.7848     7.0024 C.3     
  36 C36            8.5590     2.1767     9.9536 C.3     
  37 C37           12.6502     1.9855     7.0777 C.3     
  38 C38           12.9445     1.3117     3.2251 C.2     
  39 O39           13.6385     0.3416     3.0324 O.2     
  40 O40           13.3195     2.5101     2.7509 O.3     
  41 C41            0.7299     7.9591     3.8005 C.3     
  42 C42            1.6453     9.1257     4.0692 C.ar    
  43 C43            2.1002     9.9031     3.0206 C.ar    
  44 C44            2.9399    10.9732     3.2671 C.ar    
  45 C45            3.3244    11.2661     4.5622 C.ar    
  46 C46            2.8687    10.4892     5.6109 C.ar    
  47 C47            2.0255     9.4217     5.3648 C.ar    
  48 H48            0.6334     2.9953     1.8876 H       
  49 H49            2.0989     2.0368     4.4070 H       
  50 H50            1.8927     1.1825     2.8410 H       
  51 H51            3.4298     2.6496     1.7079 H       
  52 H52            3.3517     4.9410     2.1562 H       
  53 H53            3.4579     4.6933     3.9215 H       
  54 H54           -1.0999     3.6166     3.4954 H       
  55 H55           -0.6096     1.9414     3.8439 H       
  56 H56            0.9975     3.6158     5.4164 H       
  57 H57           -2.4711     2.7606     4.9076 H       
  58 H58           -4.1742     2.8122     6.7130 H       
  59 H59           -3.4682     3.4872     8.9995 H       
  60 H60           -1.1183     4.0818     9.4112 H       
  61 H61            5.5772     1.7994     1.8965 H       
  62 H62            5.8502     3.4952     2.3634 H       
  63 H63            8.2235     2.2343     2.1624 H       
  64 H64            9.2891     2.2770     4.7776 H       
  65 H65            9.0161     0.5812     4.3108 H       
  66 H66           10.3903     0.9204     2.2748 H       
  67 H67           10.6633     2.6162     2.7416 H       
  68 H68           11.6979     1.8093     4.8842 H       
  69 H69           11.0674    -0.8530     3.7919 H       
  70 H70           10.8954     2.9901     8.8690 H       
  71 H71            8.0959    -0.2269     8.8111 H       
  72 H72            9.8821    -2.5736     7.5442 H       
  73 H73            8.2851    -1.8995     7.1402 H       
  74 H74            9.5998    -1.8530     5.9412 H       
  75 H75            7.8400     2.8120     9.4365 H       
  76 H76            8.0264     1.4491    10.5660 H       
  77 H77            9.1950     2.7915    10.5905 H       
  78 H78           12.4803     2.4549     6.1087 H       
  79 H79           12.9836     2.7379     7.7924 H       
  80 H80           13.4141     1.2144     6.9789 H       
  81 H81           14.1526     2.5474     2.2613 H       
  82 H82            0.1274     8.1663     2.9161 H       
  83 H83            0.0753     7.8058     4.6584 H       
  84 H84            1.7999     9.6743     2.0088 H       
  85 H85            3.2959    11.5802     2.4478 H       
  86 H86            3.9810    12.1016     4.7548 H       
  87 H87            3.1693    10.7178     6.6227 H       
  88 H88            1.6666     8.8170     6.1845 H       
@<TRIPOS>BOND
   1    1    2 1
   2    1    5 1
   3    1    6 am
   4    2    3 1
   5    2    9 1
   6    2   48 1
   7    3    4 1
   8    3   49 1
   9    3   50 1
  10    4    5 1
  11    4   17 1
  12    4   51 1
  13    5   52 1
  14    5   53 1
  15    6    7 2
  16    6    8 1
  17    8   41 1
  18    9   10 1
  19    9   54 1
  20    9   55 1
  21   10   11 1
  22   10   56 1
  23   11   12 ar
  24   11   16 ar
  25   12   13 ar
  26   12   57 1
  27   13   14 ar
  28   13   58 1
  29   14   15 ar
  30   14   59 1
  31   15   16 ar
  32   15   60 1
  33   17   18 1
  34   18   19 1
  35   18   61 1
  36   18   62 1
  37   19   20 am
  38   19   21 2
  39   20   22 1
  40   20   63 1
  41   22   23 1
  42   22   64 1
  43   22   65 1
  44   23   24 1
  45   23   66 1
  46   23   67 1
  47   24   25 1
  48   24   38 1
  49   24   68 1
  50   25   26 am
  51   25   69 1
  52   26   27 2
  53   26   28 2
  54   26   29 1
  55   29   30 ar
  56   29   34 ar
  57   30   31 ar
  58   30   37 1
  59   31   32 ar
  60   31   70 1
  61   32   33 ar
  62   32   36 1
  63   33   34 ar
  64   33   71 1
  65   34   35 1
  66   35   72 1
  67   35   73 1
  68   35   74 1
  69   36   75 1
  70   36   76 1
  71   36   77 1
  72   37   78 1
  73   37   79 1
  74   37   80 1
  75   38   39 2
  76   38   40 1
  77   40   81 1
  78   41   42 1
  79   41   82 1
  80   41   83 1
  81   42   43 ar
  82   42   47 ar
  83   43   44 ar
  84   43   84 1
  85   44   45 ar
  86   44   85 1
  87   45   46 ar
  88   45   86 1
  89   46   47 ar
  90   46   87 1
  91   47   88 1

#	End of record

