#	Name: ASD01917568
#	Creating user name:	WinNT
#	Creation time:	15. 06. 2019 20:09

#	Modifying user name:	WinNT
#	Modification time:	15. 06. 2019 20:09

#	Program:	/corina/corina34_cracker 3.40 0067  02.08.2006

@<TRIPOS>MOLECULE
ASD01917568
  32   35    0    0    0
SMALL
NO_CHARGES


@<TRIPOS>ATOM
   1 C1            -0.0166     1.3747     0.0096 C.ar    
   2 C2             0.0021    -0.0041     0.0020 C.ar    
   3 C3             1.2079    -0.6832    -0.0127 C.ar    
   4 C4             2.4032     0.0143    -0.0199 C.ar    
   5 C5             2.4009     1.3933    -0.0125 C.ar    
   6 C6             1.1868     2.0866     0.0019 C.ar    
   7 C7             1.1759     3.5186     0.0093 C.1     
   8 C8             1.1669     4.6925     0.0153 C.1     
   9 C9             1.1560     6.1244     0.0226 C.2     
  10 N10            2.2158     6.8861     0.0165 N.2     
  11 C11            2.0363     8.1885     0.0243 C.2     
  12 C12            0.7195     8.5781     0.0382 C.2     
  13 S13           -0.2884     7.1294     0.0335 S.3     
  14 C14            2.8508     9.4750     0.0225 C.3     
  15 N15            1.8790    10.5711     0.0363 N.am    
  16 C16            0.6457    10.0417     0.0464 C.2     
  17 O17           -0.3871    10.6856     0.0530 O.2     
  18 C18            2.1987    12.0008     0.0403 C.3     
  19 C19            1.6802    12.8438    -1.1265 C.3     
  20 C20            1.0452    12.9820     0.2586 C.3     
  21 H21           -0.9584     1.9034     0.0169 H       
  22 H22           -0.9266    -0.5554     0.0079 H       
  23 H23            1.2161    -1.7632    -0.0182 H       
  24 H24            3.3401    -0.5227    -0.0310 H       
  25 H25            3.3344     1.9363    -0.0177 H       
  26 H26            3.4809     9.5212     0.9107 H       
  27 H27            3.4645     9.5291    -0.8767 H       
  28 H28            3.1700    12.2642     0.4589 H       
  29 H29            2.3103    13.6621    -1.4752 H       
  30 H30            1.1013    12.3347    -1.8971 H       
  31 H31            0.0485    12.5638     0.3993 H       
  32 H32            1.2575    13.8912     0.8212 H       
@<TRIPOS>BOND
   1    1    2 ar
   2    1    6 ar
   3    1   21 1
   4    2    3 ar
   5    2   22 1
   6    3    4 ar
   7    3   23 1
   8    4    5 ar
   9    4   24 1
  10    5    6 ar
  11    5   25 1
  12    6    7 1
  13    7    8 3
  14    8    9 1
  15    9   10 2
  16    9   13 1
  17   10   11 1
  18   11   14 1
  19   11   12 2
  20   12   13 1
  21   12   16 1
  22   14   15 1
  23   14   26 1
  24   14   27 1
  25   15   16 am
  26   15   18 1
  27   16   17 2
  28   18   19 1
  29   18   20 1
  30   18   28 1
  31   19   20 1
  32   19   29 1
  33   19   30 1
  34   20   31 1
  35   20   32 1

#	End of record

