#	Name: ASD00310366
#	Creating user name:	WinNT
#	Creation time:	15. 06. 2019 18:34

#	Modifying user name:	WinNT
#	Modification time:	15. 06. 2019 18:34

#	Program:	/corina/corina34_cracker 3.40 0067  02.08.2006

@<TRIPOS>MOLECULE
ASD00310366
  41   44    0    0    0
SMALL
NO_CHARGES


@<TRIPOS>ATOM
   1 N1            -0.0163     1.3485     0.0095 N.pl3   
   2 C2             0.0021    -0.0041     0.0020 C.2     
   3 C3             1.2929    -0.4498    -0.0127 C.2     
   4 C4             2.1493     0.7501    -0.0144 C.ar    
   5 C5             3.5276     0.9479    -0.0269 C.ar    
   6 C6             4.0381     2.2364    -0.0252 C.ar    
   7 C7             3.1592     3.3411    -0.0109 C.ar    
   8 C8             1.7824     3.1390     0.0015 C.ar    
   9 C9             1.2708     1.8488    -0.0001 C.ar    
  10 C10            1.7396    -1.8478    -0.0240 C.2     
  11 O11            2.9276    -2.1064    -0.0364 O.2     
  12 O12            0.8324    -2.8454    -0.0208 O.3     
  13 C13            5.5040     2.4543    -0.0380 C.ar    
  14 C14            6.0736     3.3284    -0.9628 C.ar    
  15 C15            7.4392     3.5272    -0.9699 C.ar    
  16 C16            8.2426     2.8607    -0.0621 C.ar    
  17 C17            7.6832     1.9918     0.8575 C.ar    
  18 C18            6.3182     1.7901     0.8785 C.ar    
  19 C19            9.7332     3.0818    -0.0754 C.3     
  20 C20           10.3919     2.9229     1.3051 C.3     
  21 C21           11.5488     2.2113     0.5839 C.3     
  22 C22           10.5355     1.8451    -0.5133 C.3     
  23 O23           10.1103     4.2810    -0.7550 O.3     
  24 C24            3.6857     4.6727    -0.0088 C.1     
  25 N25            4.1034     5.7292    -0.0070 N.1     
  26 H26           -0.8205     1.8908     0.0164 H       
  27 H27           -0.8731    -0.6368     0.0073 H       
  28 H28            4.1966     0.1001    -0.0375 H       
  29 H29            1.1122     3.9859     0.0128 H       
  30 H30            1.1745    -3.7498    -0.0286 H       
  31 H31            5.4474     3.8487    -1.6724 H       
  32 H32            7.8815     4.2041    -1.6858 H       
  33 H33            8.3155     1.4737     1.5633 H       
  34 H34            5.8820     1.1152     1.6001 H       
  35 H35           10.6792     3.8693     1.7632 H       
  36 H36            9.8353     2.2753     1.9825 H       
  37 H37           12.3339     2.8873     0.2452 H       
  38 H38           11.9363     1.3486     1.1259 H       
  39 H39           10.0182     0.9027    -0.3330 H       
  40 H40           10.9388     1.9213    -1.5231 H       
  41 H41            9.7176     4.3753    -1.6336 H       
@<TRIPOS>BOND
   1    1    2 1
   2    1    9 1
   3    1   26 1
   4    2    3 2
   5    2   27 1
   6    3    4 1
   7    3   10 1
   8    4    5 ar
   9    4    9 ar
  10    5    6 ar
  11    5   28 1
  12    6    7 ar
  13    6   13 1
  14    7    8 ar
  15    7   24 1
  16    8    9 ar
  17    8   29 1
  18   10   11 2
  19   10   12 1
  20   12   30 1
  21   13   14 ar
  22   13   18 ar
  23   14   15 ar
  24   14   31 1
  25   15   16 ar
  26   15   32 1
  27   16   17 ar
  28   16   19 1
  29   17   18 ar
  30   17   33 1
  31   18   34 1
  32   19   20 1
  33   19   22 1
  34   19   23 1
  35   20   21 1
  36   20   35 1
  37   20   36 1
  38   21   22 1
  39   21   37 1
  40   21   38 1
  41   22   39 1
  42   22   40 1
  43   23   41 1
  44   24   25 3

#	End of record

