#	Name: ASD03731240
#	Creating user name:	WinNT
#	Creation time:	15. 06. 2019 20:45

#	Modifying user name:	WinNT
#	Modification time:	15. 06. 2019 20:45

#	Program:	/corina/corina34_cracker 3.40 0067  02.08.2006

@<TRIPOS>MOLECULE
ASD03731240
  64   70    0    0    0
SMALL
NO_CHARGES


@<TRIPOS>ATOM
   1 N1            -0.0178     1.3444     0.0175 N.am    
   2 C2             0.0012    -0.0029    -0.0131 C.2     
   3 O3             1.0620    -0.5950    -0.0609 O.2     
   4 N4            -1.1558    -0.6938     0.0094 N.am    
   5 C5            -1.1402    -2.0885    -0.1039 C.ar    
   6 C6            -0.0166    -2.7990     0.2885 C.ar    
   7 C7            -0.0033    -4.1753     0.1750 C.ar    
   8 C8            -1.1061    -4.8336    -0.3303 C.ar    
   9 C9            -2.2343    -4.1262    -0.7266 C.ar    
  10 C10           -3.3965    -4.9112    -1.2764 C.3     
  11 C11           -4.6723    -4.0720    -1.2501 C.3     
  12 C12           -4.3786    -2.7241    -1.9191 C.3     
  13 C13           -3.4489    -1.9262    -1.0071 C.3     
  14 C14           -2.2576    -2.7559    -0.6057 C.ar    
  15 C15            1.2398     2.0954    -0.0068 C.3     
  16 C16            0.9393     3.5950     0.0363 C.3     
  17 O17            7.5583     2.1235    -2.3540 O.3     
  18 C18            8.9248     2.4810    -2.6331 C.3     
  19 O19            8.8325     3.8333    -3.1185 O.3     
  20 C20            7.7072     4.3520    -2.5444 C.ar    
  21 C21            6.9237     3.3001    -2.0754 C.ar    
  22 C22            7.2816     5.6580    -2.3805 C.ar    
  23 C23            6.0715     5.9314    -1.7501 C.ar    
  24 C24            5.2936     4.8719    -1.2933 C.ar    
  25 C25            5.7180     3.5689    -1.4497 C.ar    
  26 O26            5.4830     7.1308    -1.4753 O.3     
  27 C27            4.0530     5.4780    -0.6936 C.3     
  28 C28            4.0824     6.9230    -1.2098 C.3     
  29 N29            2.1969     4.3460     0.0120 N.am    
  30 C30            2.8061     4.7570    -1.1181 C.2     
  31 C31            4.0559     5.4190     0.8052 C.ar    
  32 C32            4.9138     5.8894     1.7742 C.ar    
  33 C33            4.6351     5.6711     3.1116 C.ar    
  34 C34            3.4935     4.9789     3.4728 C.ar    
  35 C35            2.6317     4.5048     2.5059 C.ar    
  36 C36            2.9040     4.7203     1.1571 C.ar    
  37 O37            2.4221     4.5797    -2.2548 O.2     
  38 H38           -0.8643     1.8169     0.0517 H       
  39 H39           -1.9993    -0.2243     0.1040 H       
  40 H40            0.8447    -2.2787     0.6808 H       
  41 H41            0.8682    -4.7352     0.4807 H       
  42 H42           -1.0918    -5.9098    -0.4189 H       
  43 H43           -3.1793    -5.2028    -2.3040 H       
  44 H44           -3.5430    -5.8069    -0.6727 H       
  45 H45           -5.4624    -4.5881    -1.7955 H       
  46 H46           -4.9836    -3.9096    -0.2182 H       
  47 H47           -3.8952    -2.8896    -2.8819 H       
  48 H48           -5.3095    -2.1759    -2.0646 H       
  49 H49           -3.1084    -1.0341    -1.5327 H       
  50 H50           -3.9930    -1.6288    -0.1106 H       
  51 H51            1.8438     1.8209     0.8580 H       
  52 H52            1.7857     1.8605    -0.9206 H       
  53 H53            0.3353     3.8696    -0.8285 H       
  54 H54            0.3934     3.8300     0.9501 H       
  55 H55            9.5246     2.4406    -1.7238 H       
  56 H56            9.3431     1.8271    -3.3983 H       
  57 H57            7.8926     6.4709    -2.7443 H       
  58 H58            5.1083     2.7562    -1.0834 H       
  59 H59            3.7265     7.6143    -0.4459 H       
  60 H60            3.4966     7.0195    -2.1239 H       
  61 H61            5.8048     6.4296     1.4899 H       
  62 H62            5.3072     6.0407     3.8719 H       
  63 H63            3.2761     4.8084     4.5168 H       
  64 H64            1.7425     3.9647     2.7957 H       
@<TRIPOS>BOND
   1    1    2 am
   2    1   15 1
   3    1   38 1
   4    2    3 2
   5    2    4 am
   6    4    5 1
   7    4   39 1
   8    5    6 ar
   9    5   14 ar
  10    6    7 ar
  11    6   40 1
  12    7    8 ar
  13    7   41 1
  14    8    9 ar
  15    8   42 1
  16    9   10 1
  17    9   14 ar
  18   10   11 1
  19   10   43 1
  20   10   44 1
  21   11   12 1
  22   11   45 1
  23   11   46 1
  24   12   13 1
  25   12   47 1
  26   12   48 1
  27   13   14 1
  28   13   49 1
  29   13   50 1
  30   15   16 1
  31   15   51 1
  32   15   52 1
  33   16   29 1
  34   16   53 1
  35   16   54 1
  36   17   18 1
  37   17   21 1
  38   18   19 1
  39   18   55 1
  40   18   56 1
  41   19   20 1
  42   20   21 ar
  43   20   22 ar
  44   21   25 ar
  45   22   23 ar
  46   22   57 1
  47   23   24 ar
  48   23   26 1
  49   24   25 ar
  50   24   27 1
  51   25   58 1
  52   26   28 1
  53   27   28 1
  54   27   30 1
  55   27   31 1
  56   28   59 1
  57   28   60 1
  58   29   30 am
  59   29   36 1
  60   30   37 2
  61   31   32 ar
  62   31   36 ar
  63   32   33 ar
  64   32   61 1
  65   33   34 ar
  66   33   62 1
  67   34   35 ar
  68   34   63 1
  69   35   36 ar
  70   35   64 1

#	End of record

