#	Name: ASD01208649
#	Creating user name:	WinNT
#	Creation time:	15. 06. 2019 19:10

#	Modifying user name:	WinNT
#	Modification time:	15. 06. 2019 19:10

#	Program:	/corina/corina34_cracker 3.40 0067  02.08.2006

@<TRIPOS>MOLECULE
ASD01208649
  21   22    0    0    0
SMALL
NO_CHARGES


@<TRIPOS>ATOM
   1 C1            -0.0167     1.3781     0.0096 C.ar    
   2 C2             0.0021    -0.0041     0.0020 C.ar    
   3 C3             1.2213    -0.6632    -0.0132 C.ar    
   4 C4             2.3826     0.0966    -0.0203 C.ar    
   5 C5             2.2848     1.4762    -0.0119 C.ar    
   6 N6             1.1067     2.0685     0.0026 N.ar    
   7 S7            -1.5603     2.2276     0.0215 S.o2    
   8 O8            -1.2738     3.4836    -0.5782 O.2     
   9 O9            -2.4666     1.3162    -0.5844 O.2     
  10 C10           -1.9486     2.4363     1.7812 C.3     
  11 C11           -3.3054     3.0470     2.1376 C.3     
  12 C12           -3.0527     1.5560     2.3702 C.3     
  13 Cl13           3.9378    -0.6746    -0.0387 Cl      
  14 H14           -0.9218    -0.5634     0.0082 H       
  15 H15            1.2664    -1.7422    -0.0191 H       
  16 H16            3.1835     2.0751    -0.0173 H       
  17 H17           -1.1025     2.6802     2.4236 H       
  18 H18           -3.3519     3.6924     3.0148 H       
  19 H19           -3.9647     3.3234     1.3148 H       
  20 H20           -3.5457     0.8515     1.7004 H       
  21 H21           -2.9330     1.2205     3.4004 H       
@<TRIPOS>BOND
   1    1    2 ar
   2    1    6 ar
   3    1    7 1
   4    2    3 ar
   5    2   14 1
   6    3    4 ar
   7    3   15 1
   8    4    5 ar
   9    4   13 1
  10    5    6 ar
  11    5   16 1
  12    7    8 2
  13    7    9 2
  14    7   10 1
  15   10   11 1
  16   10   12 1
  17   10   17 1
  18   11   12 1
  19   11   18 1
  20   11   19 1
  21   12   20 1
  22   12   21 1

#	End of record

