#	Name: ASD01917366
#	Creating user name:	WinNT
#	Creation time:	15. 06. 2019 20:09

#	Modifying user name:	WinNT
#	Modification time:	15. 06. 2019 20:09

#	Program:	/corina/corina34_cracker 3.40 0067  02.08.2006

@<TRIPOS>MOLECULE
ASD01917366
  55   58    0    0    0
SMALL
NO_CHARGES


@<TRIPOS>ATOM
   1 C1            -0.0168     1.3889     0.0097 C.ar    
   2 C2             0.0021    -0.0041     0.0020 C.ar    
   3 C3             1.2225    -0.6606    -0.0132 C.ar    
   4 C4             2.3820     0.0991    -0.0202 C.ar    
   5 C5             2.2883     1.4815    -0.0119 C.ar    
   6 N6             1.1168     2.0790     0.0026 N.ar    
   7 C7            -1.3134     2.1059     0.0197 C.2     
   8 O8            -2.3544     1.4791     0.0212 O.2     
   9 N9            -1.3382     3.4534     0.0271 N.am    
  10 C10           -2.6202     4.1624     0.0371 C.3     
  11 C11           -3.4818     3.8063     1.2612 C.3     
  12 C12           -4.8851     4.3843     1.0684 C.3     
  13 C13           -4.8102     5.8924     0.8223 C.3     
  14 C14           -3.8915     6.1587    -0.3830 C.3     
  15 C15           -4.2821     5.1559    -1.4932 C.3     
  16 C16           -3.4679     3.8775    -1.2242 C.3     
  17 C17           -2.4672     5.7064     0.0341 C.3     
  18 N18           -3.9478     7.5510    -0.8352 N.am    
  19 C19           -5.1193     8.0820    -1.2380 C.2     
  20 C20           -5.1761     9.4871    -1.6943 C.ar    
  21 C21           -6.3879    10.0400    -2.1121 C.ar    
  22 C22           -6.4340    11.3517    -2.5362 C.ar    
  23 C23           -5.2825    12.1191    -2.5486 C.ar    
  24 C24           -4.0784    11.5771    -2.1362 C.ar    
  25 C25           -4.0196    10.2681    -1.7038 C.ar    
  26 O26           -6.1292     7.4055    -1.2260 O.2     
  27 C27           -7.7413    11.9504    -2.9876 C.3     
  28 C28            3.5460     2.3117    -0.0195 C.3     
  29 H29           -0.9212    -0.5643     0.0082 H       
  30 H30            1.2691    -1.7396    -0.0191 H       
  31 H31            3.3489    -0.3819    -0.0317 H       
  32 H32           -0.5072     3.9538     0.0259 H       
  33 H33           -3.5441     2.7226     1.3605 H       
  34 H34           -3.0327     4.2308     2.1591 H       
  35 H35           -5.3593     3.9024     0.2134 H       
  36 H36           -5.4796     4.1937     1.9620 H       
  37 H37           -5.8081     6.2776     0.6124 H       
  38 H38           -4.4054     6.3864     1.7056 H       
  39 H39           -5.3489     4.9382    -1.4430 H       
  40 H40           -4.0280     5.5629    -2.4719 H       
  41 H41           -2.8174     3.6623    -2.0720 H       
  42 H42           -4.1384     3.0375    -1.0431 H       
  43 H43           -2.2151     6.0762     1.0280 H       
  44 H44           -1.7258     6.0243    -0.6991 H       
  45 H45           -3.1419     8.0908    -0.8447 H       
  46 H46           -7.2871     9.4420    -2.1036 H       
  47 H47           -5.3240    13.1455    -2.8819 H       
  48 H48           -3.1832    12.1812    -2.1486 H       
  49 H49           -3.0798     9.8475    -1.3779 H       
  50 H50           -8.2494    12.3991    -2.1340 H       
  51 H51           -7.5500    12.7156    -3.7399 H       
  52 H52           -8.3701    11.1695    -3.4153 H       
  53 H53            3.8394     2.5173    -1.0490 H       
  54 H54            3.3639     3.2518     0.5011 H       
  55 H55            4.3444     1.7663     0.4838 H       
@<TRIPOS>BOND
   1    1    2 ar
   2    1    6 ar
   3    1    7 1
   4    2    3 ar
   5    2   29 1
   6    3    4 ar
   7    3   30 1
   8    4    5 ar
   9    4   31 1
  10    5    6 ar
  11    5   28 1
  12    7    8 2
  13    7    9 am
  14    9   10 1
  15    9   32 1
  16   10   11 1
  17   10   16 1
  18   10   17 1
  19   11   12 1
  20   11   33 1
  21   11   34 1
  22   12   13 1
  23   12   35 1
  24   12   36 1
  25   13   14 1
  26   13   37 1
  27   13   38 1
  28   14   15 1
  29   14   17 1
  30   14   18 1
  31   15   16 1
  32   15   39 1
  33   15   40 1
  34   16   41 1
  35   16   42 1
  36   17   43 1
  37   17   44 1
  38   18   19 am
  39   18   45 1
  40   19   20 1
  41   19   26 2
  42   20   21 ar
  43   20   25 ar
  44   21   22 ar
  45   21   46 1
  46   22   23 ar
  47   22   27 1
  48   23   24 ar
  49   23   47 1
  50   24   25 ar
  51   24   48 1
  52   25   49 1
  53   27   50 1
  54   27   51 1
  55   27   52 1
  56   28   53 1
  57   28   54 1
  58   28   55 1

#	End of record

