#	Name: ASD02039420
#	Creating user name:	WinNT
#	Creation time:	15. 06. 2019 20:18

#	Modifying user name:	WinNT
#	Modification time:	15. 06. 2019 20:18

#	Program:	/corina/corina34_cracker 3.40 0067  02.08.2006

@<TRIPOS>MOLECULE
ASD02039420
  54   58    0    0    0
SMALL
NO_CHARGES


@<TRIPOS>ATOM
   1 C1            -0.1168     0.6711    -0.9222 C.ar    
   2 C2             0.2087    -0.6484    -1.1796 C.ar    
   3 C3             0.9437     1.6259    -0.4376 C.3     
   4 N4             1.6851     2.1555    -1.5847 N.am    
   5 C5             1.1580     3.2997    -2.3325 C.3     
   6 C6             2.8521     1.5902    -1.9521 C.2     
   7 C7             3.3267     0.3722    -1.2726 C.2     
   8 C8             4.4196    -0.3687    -1.6156 C.2     
   9 N9             2.7596    -0.2140    -0.1873 N.2     
  10 C10            3.4531    -1.2682     0.1322 C.2     
  11 N11            4.4915    -1.3940    -0.7346 N.pl3   
  12 O12            3.5134     2.0855    -2.8446 O.2     
  13 C13            5.5066    -2.4503    -0.7191 C.3     
  14 C14            2.1575     4.4606    -2.4677 C.3     
  15 C15            1.6519     4.6242    -3.9108 C.3     
  16 C16            1.2599     3.1381    -3.8584 C.3     
  17 C17           -0.7584    -1.5310    -1.6251 C.ar    
  18 C18           -2.0572    -1.0979    -1.8156 C.ar    
  19 C19           -2.3902     0.2330    -1.5571 C.ar    
  20 C20           -1.4089     1.1171    -1.1135 C.ar    
  21 C21           -3.7816     0.7052    -1.7590 C.ar    
  22 F22           -3.0017    -1.9601    -2.2512 F       
  23 C23           -4.4271     1.4233    -0.7393 C.ar    
  24 C24           -4.4282     0.4392    -2.9511 C.ar    
  25 C25           -5.7452     0.8878    -3.1398 C.ar    
  26 C26           -6.3869     1.6069    -2.1000 C.ar    
  27 C27           -5.7009     1.8665    -0.9010 C.ar    
  28 N28           -6.3967     0.6461    -4.2825 N.ar    
  29 C29           -7.6264     1.0617    -4.4671 C.ar    
  30 C30           -8.3139     1.7730    -3.4869 C.ar    
  31 C31           -7.7067     2.0537    -2.2953 C.ar    
  32 H32            1.2224    -0.9908    -1.0325 H       
  33 H33            0.4733     2.4479     0.1020 H       
  34 H34            1.6295     1.1003     0.2270 H       
  35 H35            0.1711     3.6109    -1.9900 H       
  36 H36            5.0975    -0.1747    -2.4337 H       
  37 H37            3.2392    -1.9337     0.9555 H       
  38 H38            5.1715    -3.2852    -1.3346 H       
  39 H39            6.4436    -2.0595    -1.1159 H       
  40 H40            5.6598    -2.7920     0.3045 H       
  41 H41            1.9283     5.3111    -1.8257 H       
  42 H42            3.2000     4.1489    -2.4030 H       
  43 H43            0.7996     5.2976    -4.0011 H       
  44 H44            2.4428     4.8421    -4.6285 H       
  45 H45            2.0570     2.4649    -4.1740 H       
  46 H46            0.3060     2.9209    -4.3392 H       
  47 H47           -0.4984    -2.5600    -1.8248 H       
  48 H48           -1.6607     2.1478    -0.9120 H       
  49 H49           -3.9049     1.6252     0.1843 H       
  50 H50           -3.9238    -0.1098    -3.7325 H       
  51 H51           -6.1877     2.4137    -0.1073 H       
  52 H52           -8.1189     0.8471    -5.4040 H       
  53 H53           -9.3263     2.1026    -3.6683 H       
  54 H54           -8.2257     2.6039    -1.5244 H       
@<TRIPOS>BOND
   1    1    2 ar
   2    1    3 1
   3    1   20 ar
   4    2   17 ar
   5    2   32 1
   6    3    4 1
   7    3   33 1
   8    3   34 1
   9    4    5 1
  10    4    6 am
  11    5   14 1
  12    5   16 1
  13    5   35 1
  14    6    7 1
  15    6   12 2
  16    7    8 2
  17    7    9 1
  18    8   11 1
  19    8   36 1
  20    9   10 2
  21   10   11 1
  22   10   37 1
  23   11   13 1
  24   13   38 1
  25   13   39 1
  26   13   40 1
  27   14   15 1
  28   14   41 1
  29   14   42 1
  30   15   16 1
  31   15   43 1
  32   15   44 1
  33   16   45 1
  34   16   46 1
  35   17   18 ar
  36   17   47 1
  37   18   19 ar
  38   18   22 1
  39   19   20 ar
  40   19   21 1
  41   20   48 1
  42   21   23 ar
  43   21   24 ar
  44   23   27 ar
  45   23   49 1
  46   24   25 ar
  47   24   50 1
  48   25   26 ar
  49   25   28 ar
  50   26   27 ar
  51   26   31 ar
  52   27   51 1
  53   28   29 ar
  54   29   30 ar
  55   29   52 1
  56   30   31 ar
  57   30   53 1
  58   31   54 1

#	End of record

