#	Name: ASD01910475
#	Creating user name:	WinNT
#	Creation time:	15. 06. 2019 19:55

#	Modifying user name:	WinNT
#	Modification time:	15. 06. 2019 19:55

#	Program:	/corina/corina34_cracker 3.40 0067  02.08.2006

@<TRIPOS>MOLECULE
ASD01910475
  43   46    0    0    0
SMALL
NO_CHARGES


@<TRIPOS>ATOM
   1 C1            -0.8524     1.9340     1.0577 C.ar    
   2 C2            -0.8690     0.4953     0.6909 C.2     
   3 N3            -1.8825    -0.3747     0.9004 N.2     
   4 C4            -1.4662    -1.5213     0.4234 C.2     
   5 O5            -0.2337    -1.3241    -0.0551 O.3     
   6 N6             0.0914    -0.1659     0.0998 N.2     
   7 C7            -2.2324    -2.8189     0.4159 C.3     
   8 C8            -2.4165    -3.2951    -1.0268 C.3     
   9 C9            -3.2229    -4.5958    -1.0375 C.3     
  10 C10           -2.4550    -5.6742    -0.2667 C.3     
  11 N11           -2.1470    -5.1663     1.0771 N.am    
  12 C12           -1.4533    -3.8772     1.2032 C.3     
  13 C13           -2.4943    -5.8694     2.1732 C.2     
  14 C14           -3.2648    -7.1220     2.0338 C.ar    
  15 O15           -2.1734    -5.4727     3.2767 O.2     
  16 C16           -2.8383    -8.1115     1.1461 C.ar    
  17 C17           -3.5604    -9.2793     1.0189 C.ar    
  18 C18           -4.7087    -9.4727     1.7700 C.ar    
  19 C19           -5.1388    -8.4923     2.6546 C.ar    
  20 C20           -4.4192    -7.3228     2.7939 C.ar    
  21 F21           -5.4125   -10.6187     1.6410 F       
  22 F22           -6.2593    -8.6861     3.3840 F       
  23 C23            0.2624     2.7310     0.7857 C.ar    
  24 C24            0.2359     4.0641     1.1431 C.ar    
  25 N25           -0.8219     4.5857     1.7334 N.ar    
  26 C26           -1.8940     3.8682     2.0077 C.ar    
  27 C27           -1.9533     2.5288     1.6789 C.ar    
  28 H28           -3.2086    -2.6677     0.8765 H       
  29 H29           -2.9492    -2.5329    -1.5956 H       
  30 H30           -1.4402    -3.4693    -1.4791 H       
  31 H31           -4.1898    -4.4283    -0.5631 H       
  32 H32           -3.3737    -4.9219    -2.0666 H       
  33 H33           -3.0678    -6.5721    -0.1864 H       
  34 H34           -1.5280    -5.9076    -0.7905 H       
  35 H35           -0.4446    -3.9641     0.7993 H       
  36 H36           -1.4051    -3.5895     2.2534 H       
  37 H37           -1.9440    -7.9624     0.5593 H       
  38 H38           -3.2305   -10.0448     0.3322 H       
  39 H39           -4.7535    -6.5604     3.4821 H       
  40 H40            1.1322     2.3102     0.3033 H       
  41 H41            1.0929     4.6881     0.9370 H       
  42 H42           -2.7383     4.3357     2.4925 H       
  43 H43           -2.8345     1.9473     1.9062 H       
@<TRIPOS>BOND
   1    1    2 1
   2    1   23 ar
   3    1   27 ar
   4    2    3 1
   5    2    6 2
   6    3    4 2
   7    4    5 1
   8    4    7 1
   9    5    6 1
  10    7    8 1
  11    7   12 1
  12    7   28 1
  13    8    9 1
  14    8   29 1
  15    8   30 1
  16    9   10 1
  17    9   31 1
  18    9   32 1
  19   10   11 1
  20   10   33 1
  21   10   34 1
  22   11   12 1
  23   11   13 am
  24   12   35 1
  25   12   36 1
  26   13   14 1
  27   13   15 2
  28   14   16 ar
  29   14   20 ar
  30   16   17 ar
  31   16   37 1
  32   17   18 ar
  33   17   38 1
  34   18   19 ar
  35   18   21 1
  36   19   20 ar
  37   19   22 1
  38   20   39 1
  39   23   24 ar
  40   23   40 1
  41   24   25 ar
  42   24   41 1
  43   25   26 ar
  44   26   27 ar
  45   26   42 1
  46   27   43 1

#	End of record

