#	Name: ASD03090395
#	Creating user name:	WinNT
#	Creation time:	15. 06. 2019 20:28

#	Modifying user name:	WinNT
#	Modification time:	15. 06. 2019 20:28

#	Program:	/corina/corina34_cracker 3.40 0067  02.08.2006

@<TRIPOS>MOLECULE
ASD03090395
  43   45    0    0    0
SMALL
NO_CHARGES


@<TRIPOS>ATOM
   1 C1            -0.1344     1.4082    -0.8454 C.2     
   2 C2            -0.0836    -0.0509    -0.6282 C.ar    
   3 C3             1.1060    -0.7506    -0.8465 C.ar    
   4 C4             1.1492    -2.1118    -0.6428 C.ar    
   5 C5             0.0115    -2.7898    -0.2210 C.ar    
   6 C6            -1.1739    -2.0974    -0.0032 C.ar    
   7 C7            -1.2235    -0.7352    -0.1982 C.ar    
   8 O8             0.8598     2.0028    -1.2148 O.2     
   9 N9            -1.2842     2.0805    -0.6397 N.am    
  10 O10            0.0580    -4.1314    -0.0217 O.3     
  11 C11            1.3340    -4.7622    -0.1482 C.3     
  12 C12            1.3496    -6.0513     0.6756 C.3     
  13 C13            1.5955    -5.0936    -1.6189 C.3     
  14 C14           -1.3346     3.5287    -0.8553 C.3     
  15 N15           -6.4476     5.4544     0.5145 N.pl3   
  16 C16           -6.2513     5.7157     1.8432 C.2     
  17 C17           -4.9916     5.4065     2.1891 C.2     
  18 C18           -4.3269     4.9063     0.9834 C.ar    
  19 C19           -3.0405     4.4387     0.7074 C.ar    
  20 C20           -2.7233     4.0328    -0.5580 C.ar    
  21 C21           -3.6700     4.0815    -1.5723 C.ar    
  22 C22           -4.9447     4.5397    -1.3222 C.ar    
  23 C23           -5.2896     4.9580    -0.0410 C.ar    
  24 H24            1.9902    -0.2247    -1.1749 H       
  25 H25            2.0683    -2.6534    -0.8113 H       
  26 H26           -2.0559    -2.6278     0.3242 H       
  27 H27           -2.1437    -0.1972    -0.0241 H       
  28 H28           -2.0784     1.6056    -0.3488 H       
  29 H29            2.1099    -4.0888     0.2160 H       
  30 H30            0.5737    -6.7247     0.3114 H       
  31 H31            2.3229    -6.5324     0.5791 H       
  32 H32            1.1633    -5.8152     1.7233 H       
  33 H33            1.5845    -4.1752    -2.2058 H       
  34 H34            2.5688    -5.5747    -1.7154 H       
  35 H35            0.8196    -5.7669    -1.9831 H       
  36 H36           -0.6206     4.0196    -0.1939 H       
  37 H37           -1.0816     3.7507    -1.8920 H       
  38 H38           -7.2798     5.5940     0.0362 H       
  39 H39           -6.9989     6.1123     2.5141 H       
  40 H40           -4.5517     5.5074     3.1703 H       
  41 H41           -2.2986     4.3988     1.4913 H       
  42 H42           -3.4042     3.7572    -2.5676 H       
  43 H43           -5.6740     4.5741    -2.1181 H       
@<TRIPOS>BOND
   1    1    2 1
   2    1    8 2
   3    1    9 am
   4    2    3 ar
   5    2    7 ar
   6    3    4 ar
   7    3   24 1
   8    4    5 ar
   9    4   25 1
  10    5    6 ar
  11    5   10 1
  12    6    7 ar
  13    6   26 1
  14    7   27 1
  15    9   14 1
  16    9   28 1
  17   10   11 1
  18   11   12 1
  19   11   13 1
  20   11   29 1
  21   12   30 1
  22   12   31 1
  23   12   32 1
  24   13   33 1
  25   13   34 1
  26   13   35 1
  27   14   20 1
  28   14   36 1
  29   14   37 1
  30   15   16 1
  31   15   23 1
  32   15   38 1
  33   16   17 2
  34   16   39 1
  35   17   18 1
  36   17   40 1
  37   18   19 ar
  38   18   23 ar
  39   19   20 ar
  40   19   41 1
  41   20   21 ar
  42   21   22 ar
  43   21   42 1
  44   22   23 ar
  45   22   43 1

#	End of record

