#	Name: ASD04910326
#	Creating user name:	WinNT
#	Creation time:	15. 06. 2019 20:55

#	Modifying user name:	WinNT
#	Modification time:	15. 06. 2019 20:55

#	Program:	/corina/corina34_cracker 3.40 0067  02.08.2006

@<TRIPOS>MOLECULE
ASD04910326
  58   60    0    0    0
SMALL
NO_CHARGES


@<TRIPOS>ATOM
   1 C1             0.1507     1.3093    -0.0144 C.ar    
   2 C2             0.3053    -0.0653    -0.0432 C.ar    
   3 C3            -0.7934    -0.8828    -0.2095 C.ar    
   4 C4            -2.0632    -0.3202    -0.3483 C.ar    
   5 C5            -2.2124     1.0672    -0.3179 C.ar    
   6 C6            -1.1060     1.8732    -0.1457 C.ar    
   7 C7             1.3555     2.1962     0.1671 C.3     
   8 O8             1.1834     3.3948    -0.5916 O.3     
   9 C9             2.2919     3.9189    -1.1769 C.ar    
  10 C10            1.5115     2.5479     1.6479 C.3     
  11 C11            3.5239     3.3025    -1.0033 C.ar    
  12 C12            2.1890     5.0664    -1.9519 C.ar    
  13 C13            3.3117     5.6012    -2.5473 C.ar    
  14 C14            4.5524     4.9877    -2.3704 C.ar    
  15 C15            4.6509     3.8314    -1.5956 C.ar    
  16 C16            5.7594     5.5582    -3.0081 C.2     
  17 C17            5.9114     6.8421    -3.4505 C.2     
  18 C18            7.1954     6.9617    -3.9828 C.2     
  19 N19            7.8022     5.8072    -3.8725 N.2     
  20 N20            6.9276     4.9020    -3.2577 N.pl3   
  21 C21           -3.2452    -1.1902    -0.5274 C.2     
  22 N22           -4.4700    -0.6439    -0.6612 N.am    
  23 O23           -3.1122    -2.3982    -0.5539 O.2     
  24 C24           -5.6411    -1.5060    -0.8386 C.3     
  25 C25           -6.8967    -0.6409    -0.9648 C.3     
  26 C26           -8.1015    -1.5277    -1.1473 C.2     
  27 O27           -7.9693    -2.7284    -1.1737 O.2     
  28 O28           -9.3213    -0.9837    -1.2805 O.3     
  29 C29            2.8025     3.3437     1.8499 C.3     
  30 C30            2.9584     3.6955     3.3307 C.3     
  31 C31            7.2141     3.4994    -2.9469 C.3     
  32 H32            1.2885    -0.4993     0.0643 H       
  33 H33           -0.6713    -1.9556    -0.2326 H       
  34 H34           -3.1922     1.5087    -0.4248 H       
  35 H35           -1.2199     2.9469    -0.1220 H       
  36 H36            2.2472     1.6727    -0.1778 H       
  37 H37            0.6605     3.1480     1.9704 H       
  38 H38            1.5537     1.6315     2.2366 H       
  39 H39            3.5995     2.4077    -0.4031 H       
  40 H40            1.2283     5.5405    -2.0887 H       
  41 H41            3.2308     6.4936    -3.1503 H       
  42 H42            5.6096     3.3541    -1.4561 H       
  43 H43            5.1693     7.6250    -3.3978 H       
  44 H44            7.6180     7.8571    -4.4141 H       
  45 H45           -4.5760     0.3200    -0.6400 H       
  46 H46           -5.5191    -2.1033    -1.7421 H       
  47 H47           -5.7400    -2.1664     0.0230 H       
  48 H48           -7.0188    -0.0436    -0.0612 H       
  49 H49           -6.7978     0.0195    -1.8263 H       
  50 H50          -10.0635    -1.5928    -1.3952 H       
  51 H51            3.6534     2.7437     1.5274 H       
  52 H52            2.7603     4.2602     1.2613 H       
  53 H53            2.1075     4.2955     3.6532 H       
  54 H54            3.0007     2.7791     3.9194 H       
  55 H55            3.8782     4.2625     3.4746 H       
  56 H56            7.5338     3.4153    -1.9082 H       
  57 H57            6.3151     2.9024    -3.0998 H       
  58 H58            8.0067     3.1367    -3.6014 H       
@<TRIPOS>BOND
   1    1    2 ar
   2    1    7 1
   3    1    6 ar
   4    2    3 ar
   5    2   32 1
   6    3    4 ar
   7    3   33 1
   8    4    5 ar
   9    4   21 1
  10    5    6 ar
  11    5   34 1
  12    6   35 1
  13    7    8 1
  14    7   10 1
  15    7   36 1
  16    8    9 1
  17    9   11 ar
  18    9   12 ar
  19   10   29 1
  20   10   37 1
  21   10   38 1
  22   11   15 ar
  23   11   39 1
  24   12   13 ar
  25   12   40 1
  26   13   14 ar
  27   13   41 1
  28   14   15 ar
  29   14   16 1
  30   15   42 1
  31   16   17 2
  32   16   20 1
  33   17   18 1
  34   17   43 1
  35   18   19 2
  36   18   44 1
  37   19   20 1
  38   20   31 1
  39   21   22 am
  40   21   23 2
  41   22   24 1
  42   22   45 1
  43   24   25 1
  44   24   46 1
  45   24   47 1
  46   25   26 1
  47   25   48 1
  48   25   49 1
  49   26   27 2
  50   26   28 1
  51   28   50 1
  52   29   30 1
  53   29   51 1
  54   29   52 1
  55   30   53 1
  56   30   54 1
  57   30   55 1
  58   31   56 1
  59   31   57 1
  60   31   58 1

#	End of record

