#	Name: ASD01881786
#	Creating user name:	WinNT
#	Creation time:	15. 06. 2019 19:43

#	Modifying user name:	WinNT
#	Modification time:	15. 06. 2019 19:43

#	Program:	/corina/corina34_cracker 3.40 0067  02.08.2006

@<TRIPOS>MOLECULE
ASD01881786
  46   48    0    0    0
SMALL
NO_CHARGES


@<TRIPOS>ATOM
   1 C1            -0.0180     1.4730     0.0101 C.2     
   2 C2             0.0021    -0.0041     0.0020 C.ar    
   3 C3             1.2188    -0.6888    -0.0133 C.ar    
   4 C4             1.2303    -2.0682    -0.0203 C.ar    
   5 C5             0.0396    -2.7731    -0.0127 C.ar    
   6 C6            -1.1697    -2.1009     0.0020 C.ar    
   7 C7            -1.1956    -0.7217     0.0154 C.ar    
   8 O8             1.0256     2.0946     0.0035 O.2     
   9 O9            -1.1936     2.1307     0.0193 O.3     
  10 C10            0.0601    -4.2800    -0.0210 C.3     
  11 O11            0.0794    -4.7635     1.3236 O.3     
  12 N12            0.1614   -10.1554     2.2852 N.pl3   
  13 N13            0.1741   -10.0625     3.6848 N.2     
  14 N14            0.1611    -8.8240     4.0318 N.2     
  15 C15            0.1397    -8.0320     2.9413 C.ar    
  16 C16            0.1395    -8.8645     1.8086 C.ar    
  17 C17            0.1187    -6.6412     2.7685 C.ar    
  18 C18            0.0994    -6.1125     1.4944 C.ar    
  19 C19            0.0998    -6.9502     0.3817 C.ar    
  20 C20            0.1187    -8.3079     0.5347 C.ar    
  21 C21            0.1753   -11.3843     1.4879 C.3     
  22 C22           -1.2621   -11.8376     1.2245 C.3     
  23 C23           -2.0104   -10.7429     0.4613 C.3     
  24 C24           -1.2476   -13.1211     0.3918 C.3     
  25 C25           -1.9657   -12.1022     2.5572 C.3     
  26 Br26           0.1178    -5.4960     4.2733 Br      
  27 H27            2.1488    -0.1398    -0.0199 H       
  28 H28            2.1707    -2.5992    -0.0321 H       
  29 H29           -2.0953    -2.6572     0.0071 H       
  30 H30           -2.1401    -0.1983     0.0318 H       
  31 H31           -1.1561     3.0969     0.0244 H       
  32 H32           -0.8298    -4.6526    -0.5283 H       
  33 H33            0.9499    -4.6284    -0.5452 H       
  34 H34            0.0842    -6.5232    -0.6102 H       
  35 H35            0.1186    -8.9491    -0.3344 H       
  36 H36            0.6765   -11.1958     0.5385 H       
  37 H37            0.7084   -12.1642     2.0316 H       
  38 H38           -1.5092   -10.5544    -0.4881 H       
  39 H39           -3.0344   -11.0658     0.2737 H       
  40 H40           -2.0207    -9.8285     1.0546 H       
  41 H41           -0.7145   -13.9010     0.9355 H       
  42 H42           -2.2716   -13.4440     0.2042 H       
  43 H43           -0.7464   -12.9326    -0.5576 H       
  44 H44           -1.9760   -11.1879     3.1504 H       
  45 H45           -2.9897   -12.4252     2.3695 H       
  46 H46           -1.4325   -12.8822     3.1009 H       
@<TRIPOS>BOND
   1    1    2 1
   2    1    8 2
   3    1    9 1
   4    2    3 ar
   5    2    7 ar
   6    3    4 ar
   7    3   27 1
   8    4    5 ar
   9    4   28 1
  10    5    6 ar
  11    5   10 1
  12    6    7 ar
  13    6   29 1
  14    7   30 1
  15    9   31 1
  16   10   11 1
  17   10   32 1
  18   10   33 1
  19   11   18 1
  20   12   13 1
  21   12   16 1
  22   12   21 1
  23   13   14 2
  24   14   15 1
  25   15   16 ar
  26   15   17 ar
  27   16   20 ar
  28   17   18 ar
  29   17   26 1
  30   18   19 ar
  31   19   20 ar
  32   19   34 1
  33   20   35 1
  34   21   22 1
  35   21   36 1
  36   21   37 1
  37   22   23 1
  38   22   24 1
  39   22   25 1
  40   23   38 1
  41   23   39 1
  42   23   40 1
  43   24   41 1
  44   24   42 1
  45   24   43 1
  46   25   44 1
  47   25   45 1
  48   25   46 1

#	End of record

