#	Name: ASD05130002
#	Creating user name:	WinNT
#	Creation time:	15. 06. 2019 20:56

#	Modifying user name:	WinNT
#	Modification time:	15. 06. 2019 20:56

#	Program:	/corina/corina34_cracker 3.40 0067  02.08.2006

@<TRIPOS>MOLECULE
ASD05130002
  64   67    0    0    0
SMALL
NO_CHARGES


@<TRIPOS>ATOM
   1 C1            -0.5768     1.2372    -1.7116 C.ar    
   2 C2            -0.3334    -0.0171    -1.1681 C.ar    
   3 C3             0.9447    -0.5574    -1.2201 C.ar    
   4 C4             1.9711     0.1531    -1.8118 C.ar    
   5 C5             1.7279     1.4018    -2.3522 C.ar    
   6 N6            -1.3741    -0.7352    -0.5687 N.am    
   7 C7            -1.4110    -2.0787    -0.6692 C.2     
   8 N8            -2.3496    -2.7788    -0.0018 N.am    
   9 O9            -0.5975    -2.6591    -1.3618 O.2     
  10 C10           -2.4487    -4.1646    -0.1806 C.ar    
  11 C11           -1.3061    -4.9198    -0.3907 C.ar    
  12 C12           -1.4094    -6.2983    -0.5681 C.ar    
  13 C13           -2.6621    -6.9108    -0.5334 C.ar    
  14 C14           -3.7960    -6.1523    -0.3238 C.ar    
  15 C15           -3.6940    -4.7840    -0.1417 C.ar    
  16 F16           -4.8073    -4.0467     0.0636 F       
  17 C17           -2.7776    -8.4010    -0.7254 C.3     
  18 C18           -0.1913    -7.1113    -0.7936 C.2     
  19 C19            0.3093    -7.8946     0.2100 C.2     
  20 C20            0.4814    -7.0863    -2.0947 C.2     
  21 N21            1.5886    -7.8261    -2.3010 N.am    
  22 C22            2.1011    -8.6126    -1.2953 C.ar    
  23 C23            1.4738    -8.6620    -0.0311 C.ar    
  24 C24            3.2424    -9.3807    -1.4955 C.ar    
  25 C25            3.7194   -10.1570    -0.4498 C.ar    
  26 N26            3.1079   -10.1781     0.7288 N.ar    
  27 C27            2.0234    -9.4736     0.9686 C.ar    
  28 O28            0.0378    -6.3945    -2.9938 O.2     
  29 C29            2.2519    -7.7928    -3.6068 C.3     
  30 C30            3.3014    -6.6796    -3.6176 C.3     
  31 N31            4.8612   -10.9295    -0.6396 N.am    
  32 C32            5.2780   -11.7660     0.3315 C.2     
  33 N33            6.3214   -12.5896     0.1094 N.am    
  34 O34            4.7127   -11.7777     1.4077 O.2     
  35 C35            6.7745   -13.4989     1.1650 C.3     
  36 C36            7.0026   -12.5756    -1.1875 C.3     
  37 C37            0.4542     1.9445    -2.3030 C.ar    
  38 F38            0.2194     3.1652    -2.8320 F       
  39 H39           -1.5709     1.6581    -1.6766 H       
  40 H40            1.1364    -1.5327    -0.7976 H       
  41 H41            2.9650    -0.2676    -1.8520 H       
  42 H42            2.5322     1.9553    -2.8140 H       
  43 H43           -2.0689    -0.2660    -0.0809 H       
  44 H44           -2.9564    -2.3231     0.6023 H       
  45 H45           -0.3382    -4.4415    -0.4171 H       
  46 H46           -4.7651    -6.6283    -0.2976 H       
  47 H47           -2.7098    -8.8983     0.2421 H       
  48 H48           -3.7367    -8.6346    -1.1877 H       
  49 H49           -1.9697    -8.7480    -1.3697 H       
  50 H50           -0.1774    -7.9266     1.1736 H       
  51 H51            3.7490    -9.3732    -2.4493 H       
  52 H52            1.5568    -9.5188     1.9415 H       
  53 H53            2.7368    -8.7511    -3.7926 H       
  54 H54            1.5127    -7.6028    -4.3850 H       
  55 H55            2.8165    -5.7212    -3.4318 H       
  56 H56            4.0406    -6.8696    -2.8394 H       
  57 H57            3.7949    -6.6548    -4.5892 H       
  58 H58            5.3571   -10.8660    -1.4709 H       
  59 H59            6.2430   -14.4468     1.0808 H       
  60 H60            7.8455   -13.6723     1.0603 H       
  61 H61            6.5720   -13.0541     2.1393 H       
  62 H62            7.8154   -11.8497    -1.1632 H       
  63 H63            7.4064   -13.5663    -1.3965 H       
  64 H64            6.2929   -12.3005    -1.9677 H       
@<TRIPOS>BOND
   1    1    2 ar
   2    1   37 ar
   3    1   39 1
   4    2    3 ar
   5    2    6 1
   6    3    4 ar
   7    3   40 1
   8    4    5 ar
   9    4   41 1
  10    5   37 ar
  11    5   42 1
  12    6    7 am
  13    6   43 1
  14    7    8 am
  15    7    9 2
  16    8   10 1
  17    8   44 1
  18   10   11 ar
  19   10   15 ar
  20   11   12 ar
  21   11   45 1
  22   12   13 ar
  23   12   18 1
  24   13   14 ar
  25   13   17 1
  26   14   15 ar
  27   14   46 1
  28   15   16 1
  29   17   47 1
  30   17   48 1
  31   17   49 1
  32   18   19 2
  33   18   20 1
  34   19   23 1
  35   19   50 1
  36   20   21 am
  37   20   28 2
  38   21   22 1
  39   21   29 1
  40   22   23 ar
  41   22   24 ar
  42   23   27 ar
  43   24   25 ar
  44   24   51 1
  45   25   26 ar
  46   25   31 1
  47   26   27 ar
  48   27   52 1
  49   29   30 1
  50   29   53 1
  51   29   54 1
  52   30   55 1
  53   30   56 1
  54   30   57 1
  55   31   32 am
  56   31   58 1
  57   32   33 am
  58   32   34 2
  59   33   35 1
  60   33   36 1
  61   35   59 1
  62   35   60 1
  63   35   61 1
  64   36   62 1
  65   36   63 1
  66   36   64 1
  67   37   38 1

#	End of record

