#	Name: ASD01230791
#	Creating user name:	WinNT
#	Creation time:	15. 06. 2019 19:15

#	Modifying user name:	WinNT
#	Modification time:	15. 06. 2019 19:15

#	Program:	/corina/corina34_cracker 3.40 0067  02.08.2006

@<TRIPOS>MOLECULE
ASD01230791
  43   46    0    0    0
SMALL
NO_CHARGES


@<TRIPOS>ATOM
   1 C1            -0.0166     1.3737     0.0096 C.2     
   2 C2             0.0021    -0.0041     0.0020 C.2     
   3 C3            -1.2147    -0.7002     0.0078 C.2     
   4 C4            -2.3849    -0.0394     0.0099 C.2     
   5 N5            -2.4623     1.3313     0.0002 N.pl3   
   6 C6            -1.3175     2.0759     0.0320 C.2     
   7 C7            -3.8098     1.9046    -0.0504 C.3     
   8 C8            -3.8784     3.1903     0.7787 C.3     
   9 S9            -2.6220     4.3263     0.1109 S.o2    
  10 N10           -1.2620     3.3847     0.0819 N.am    
  11 C11            1.2496     2.1409     0.0016 C.ar    
  12 O12           -2.8866     4.6254    -1.2528 O.2     
  13 O13           -2.3214     5.3524     1.0469 O.2     
  14 C14            2.1015     2.0725    -1.1016 C.ar    
  15 C15            3.2798     2.7878    -1.1062 C.ar    
  16 C16            3.6200     3.5765    -0.0131 C.ar    
  17 C17            2.7733     3.6465     1.0873 C.ar    
  18 C18            1.5908     2.9383     1.0949 C.ar    
  19 N19            4.8148     4.2993    -0.0202 N.3     
  20 C20            4.9769     5.0614     1.2265 C.3     
  21 C21            6.3234     5.7896     1.2017 C.3     
  22 O22            6.3859     6.6264     0.0436 O.3     
  23 C23            6.2323     5.9166    -1.1885 C.3     
  24 C24            4.8849     5.1897    -1.1879 C.3     
  25 H25            0.9399    -0.5395    -0.0085 H       
  26 H26           -1.2116    -1.7802     0.0101 H       
  27 H27           -3.3019    -0.6099     0.0193 H       
  28 H28           -4.0659     2.1301    -1.0856 H       
  29 H29           -4.5230     1.1822     0.3467 H       
  30 H30           -4.8684     3.6375     0.6895 H       
  31 H31           -3.6620     2.9702     1.8241 H       
  32 H32            1.8381     1.4594    -1.9507 H       
  33 H33            3.9395     2.7352    -1.9597 H       
  34 H34            3.0401     4.2600     1.9351 H       
  35 H35            0.9332     2.9933     1.9498 H       
  36 H36            4.1708     5.7898     1.3153 H       
  37 H37            4.9475     4.3796     2.0764 H       
  38 H38            6.4230     6.4012     2.0985 H       
  39 H39            7.1317     5.0591     1.1670 H       
  40 H40            6.2660     6.6201    -2.0204 H       
  41 H41            7.0379     5.1898    -1.2927 H       
  42 H42            4.7883     4.6015    -2.1005 H       
  43 H43            4.0774     5.9201    -1.1377 H       
@<TRIPOS>BOND
   1    1    2 2
   2    1   11 1
   3    1    6 1
   4    2    3 1
   5    2   25 1
   6    3    4 2
   7    3   26 1
   8    4    5 1
   9    4   27 1
  10    5    6 1
  11    5    7 1
  12    6   10 2
  13    7    8 1
  14    7   28 1
  15    7   29 1
  16    8    9 1
  17    8   30 1
  18    8   31 1
  19    9   10 am
  20    9   12 2
  21    9   13 2
  22   11   14 ar
  23   11   18 ar
  24   14   15 ar
  25   14   32 1
  26   15   16 ar
  27   15   33 1
  28   16   17 ar
  29   16   19 1
  30   17   18 ar
  31   17   34 1
  32   18   35 1
  33   19   20 1
  34   19   24 1
  35   20   21 1
  36   20   36 1
  37   20   37 1
  38   21   22 1
  39   21   38 1
  40   21   39 1
  41   22   23 1
  42   23   24 1
  43   23   40 1
  44   23   41 1
  45   24   42 1
  46   24   43 1

#	End of record

