#	Name: ASD01151093
#	Creating user name:	WinNT
#	Creation time:	15. 06. 2019 19:05

#	Modifying user name:	WinNT
#	Modification time:	15. 06. 2019 19:05

#	Program:	/corina/corina34_cracker 3.40 0067  02.08.2006

@<TRIPOS>MOLECULE
ASD01151093
  44   46    0    0    0
SMALL
NO_CHARGES


@<TRIPOS>ATOM
   1 C1             1.3507    -2.7347    -2.4379 C.3     
   2 C2             1.7751    -1.4518    -1.7204 C.3     
   3 C3             2.2343    -1.7896    -0.3005 C.3     
   4 O4             2.8501    -0.8393    -2.4356 O.3     
   5 C5             0.5895    -0.4868    -1.6569 C.3     
   6 N6             0.1872    -0.1175    -3.0163 N.am    
   7 C7            -0.7488    -0.8417    -3.6539 C.2     
   8 O8            -1.2405    -1.7932    -3.0784 O.2     
   9 N9            -1.1638    -0.5589    -4.8985 N.am    
  10 C10           -2.1895    -1.3991    -5.5216 C.3     
  11 C11           -3.5542    -0.8433    -5.2057 C.ar    
  12 C12           -4.2240    -1.2598    -4.0704 C.ar    
  13 C13           -5.4755    -0.7500    -3.7800 C.ar    
  14 C14           -6.0577     0.1770    -4.6256 C.ar    
  15 Br15          -7.7696     0.8753    -4.2286 Br      
  16 C16           -5.3871     0.5934    -5.7615 C.ar    
  17 C17           -4.1334     0.0870    -6.0483 C.ar    
  18 C18           -0.6550     0.4852    -5.5878 C.2     
  19 O19           -1.0377     0.7338    -6.7150 O.2     
  20 C20            0.3746     1.3153    -4.9397 C.ar    
  21 C21            0.9474     2.4090    -5.5868 C.ar    
  22 C22            1.9093     3.1566    -4.9383 C.ar    
  23 F23            2.4679     4.2177    -5.5605 F       
  24 C24            2.3062     2.8239    -3.6478 C.ar    
  25 F25            3.2486     3.5649    -3.0248 F       
  26 C26            1.7432     1.7396    -2.9956 C.ar    
  27 F27            2.1348     1.4243    -1.7417 F       
  28 C28            0.7724     0.9817    -3.6330 C.ar    
  29 H29            0.4832    -3.1622    -1.9352 H       
  30 H30            1.0946    -2.5048    -3.4722 H       
  31 H31            2.1720    -3.4511    -2.4177 H       
  32 H32            3.0790    -2.4771    -0.3457 H       
  33 H33            2.5367    -0.8756     0.2107 H       
  34 H34            1.4144    -2.2568     0.2450 H       
  35 H35            3.2554    -0.0930    -1.9731 H       
  36 H36           -0.2454    -0.9700    -1.1495 H       
  37 H37            0.8792     0.4090    -1.1077 H       
  38 H38           -2.0429    -1.4105    -6.6017 H       
  39 H39           -2.1121    -2.4148    -5.1337 H       
  40 H40           -3.7695    -1.9838    -3.4104 H       
  41 H41           -5.9988    -1.0756    -2.8932 H       
  42 H42           -5.8413     1.3172    -6.4220 H       
  43 H43           -3.6080     0.4151    -6.9330 H       
  44 H44            0.6408     2.6694    -6.5891 H       
@<TRIPOS>BOND
   1    1    2 1
   2    1   29 1
   3    1   30 1
   4    1   31 1
   5    2    3 1
   6    2    4 1
   7    2    5 1
   8    3   32 1
   9    3   33 1
  10    3   34 1
  11    4   35 1
  12    5    6 1
  13    5   36 1
  14    5   37 1
  15    6   28 1
  16    6    7 am
  17    7    8 2
  18    7    9 am
  19    9   10 1
  20    9   18 am
  21   10   11 1
  22   10   38 1
  23   10   39 1
  24   11   17 ar
  25   11   12 ar
  26   12   13 ar
  27   12   40 1
  28   13   14 ar
  29   13   41 1
  30   14   15 1
  31   14   16 ar
  32   16   17 ar
  33   16   42 1
  34   17   43 1
  35   18   19 2
  36   18   20 1
  37   20   28 ar
  38   20   21 ar
  39   21   22 ar
  40   21   44 1
  41   22   23 1
  42   22   24 ar
  43   24   25 1
  44   24   26 ar
  45   26   27 1
  46   26   28 ar

#	End of record

