#	Name: ASD00230005
#	Creating user name:	WinNT
#	Creation time:	15. 06. 2019 18:33

#	Modifying user name:	WinNT
#	Modification time:	15. 06. 2019 18:33

#	Program:	/corina/corina34_cracker 3.40 0067  02.08.2006

@<TRIPOS>MOLECULE
ASD00230005
  65   68    0    0    0
SMALL
NO_CHARGES


@<TRIPOS>ATOM
   1 C1             0.1007     1.5296    -0.9917 C.ar    
   2 C2             0.1362     0.1780    -1.2814 C.ar    
   3 C3             1.3060    -0.5601    -1.0905 C.ar    
   4 C4             2.4381     0.0367    -0.6148 C.ar    
   5 C5             2.4284     1.3982    -0.3156 C.ar    
   6 C6             1.2491     2.1560    -0.5046 C.ar    
   7 C7             3.6118     2.0969     0.1977 C.ar    
   8 C8             3.5163     3.4804     0.4752 C.ar    
   9 N9             2.3695     4.1484     0.2762 N.ar    
  10 C10            1.2755     3.5840    -0.1802 C.ar    
  11 C11            4.8138     1.4199     0.4124 C.ar    
  12 C12            5.8999     2.0922     0.8913 C.ar    
  13 C13            5.8217     3.4586     1.1708 C.ar    
  14 C14            4.6465     4.1522     0.9664 C.ar    
  15 N15           -1.0092    -0.4550    -1.7691 N.pl3   
  16 N16            6.9437     4.1290     1.6611 N.pl3   
  17 C17            0.0547     4.4001    -0.3687 C.ar    
  18 C18            2.3366     5.5803     0.5840 C.3     
  19 C19            0.0745     5.5032    -1.2225 C.ar    
  20 C20           -1.0665     6.2598    -1.3939 C.ar    
  21 C21           -2.2286     5.9265    -0.7211 C.ar    
  22 C22           -2.2545     4.8340     0.1274 C.ar    
  23 C23           -1.1218     4.0658     0.3024 C.ar    
  24 C24            2.0325     5.7756     2.0707 C.3     
  25 C25            1.9982     7.2711     2.3921 C.3     
  26 N26            1.7062     7.4586     3.8195 N.4     
  27 C27            2.7509     6.8091     4.6224 C.3     
  28 C28            1.6732     8.8944     4.1281 C.3     
  29 C29            4.1087     7.4328     4.2933 C.3     
  30 C30            1.3692     9.0897     5.6148 C.3     
  31 C31            0.4026     6.8597     4.1355 C.3     
  32 H32           -0.8057     2.0963    -1.1452 H       
  33 H33            1.3152    -1.6151    -1.3214 H       
  34 H34            3.3373    -0.5438    -0.4705 H       
  35 H35            4.8838     0.3634     0.1996 H       
  36 H36            6.8273     1.5639     1.0560 H       
  37 H37            4.5961     5.2087     1.1848 H       
  38 H38           -1.8244     0.0532    -1.9031 H       
  39 H39           -0.9894    -1.4030    -1.9738 H       
  40 H40            7.7723     3.6460     1.8062 H       
  41 H41            6.8947     5.0778     1.8568 H       
  42 H42            3.3039     6.0247     0.3495 H       
  43 H43            1.5614     6.0623    -0.0118 H       
  44 H44            0.9811     5.7646    -1.7480 H       
  45 H45           -1.0524     7.1142    -2.0543 H       
  46 H46           -3.1191     6.5218    -0.8586 H       
  47 H47           -3.1646     4.5791     0.6500 H       
  48 H48           -1.1433     3.2132     0.9650 H       
  49 H49            1.0652     5.3313     2.3051 H       
  50 H50            2.8077     5.2937     2.6664 H       
  51 H51            2.9655     7.7154     2.1576 H       
  52 H52            1.2230     7.7530     1.7963 H       
  53 H53            2.5343     6.9482     5.6816 H       
  54 H54            2.7754     5.7437     4.3934 H       
  55 H55            2.6406     9.3388     3.8936 H       
  56 H56            0.8981     9.3764     3.5323 H       
  57 H57            4.8839     6.9508     4.8891 H       
  58 H58            4.3254     7.2936     3.2341 H       
  59 H59            4.0843     8.4982     4.5223 H       
  60 H60            0.4019     8.6454     5.8492 H       
  61 H61            2.1444     8.6078     6.2105 H       
  62 H62            1.3447    10.1551     5.8438 H       
  63 H63            0.4270     5.7943     3.9065 H       
  64 H64            0.1860     6.9989     5.1946 H       
  65 H65           -0.3726     7.3417     3.5397 H       
@<TRIPOS>BOND
   1    1    2 ar
   2    1    6 ar
   3    1   32 1
   4    2    3 ar
   5    2   15 1
   6    3    4 ar
   7    3   33 1
   8    4    5 ar
   9    4   34 1
  10    5    6 ar
  11    5    7 ar
  12    6   10 ar
  13    7    8 ar
  14    7   11 ar
  15    8    9 ar
  16    8   14 ar
  17    9   10 ar
  18    9   18 1
  19   10   17 1
  20   11   12 ar
  21   11   35 1
  22   12   13 ar
  23   12   36 1
  24   13   14 ar
  25   13   16 1
  26   14   37 1
  27   15   38 1
  28   15   39 1
  29   16   40 1
  30   16   41 1
  31   17   19 ar
  32   17   23 ar
  33   18   24 1
  34   18   42 1
  35   18   43 1
  36   19   20 ar
  37   19   44 1
  38   20   21 ar
  39   20   45 1
  40   21   22 ar
  41   21   46 1
  42   22   23 ar
  43   22   47 1
  44   23   48 1
  45   24   25 1
  46   24   49 1
  47   24   50 1
  48   25   26 1
  49   25   51 1
  50   25   52 1
  51   26   27 1
  52   26   28 1
  53   26   31 1
  54   27   29 1
  55   27   53 1
  56   27   54 1
  57   28   30 1
  58   28   55 1
  59   28   56 1
  60   29   57 1
  61   29   58 1
  62   29   59 1
  63   30   60 1
  64   30   61 1
  65   30   62 1
  66   31   63 1
  67   31   64 1
  68   31   65 1

#	End of record

