#	Name: ASD01880018
#	Creating user name:	WinNT
#	Creation time:	15. 06. 2019 19:39

#	Modifying user name:	WinNT
#	Modification time:	15. 06. 2019 19:39

#	Program:	/corina/corina34_cracker 3.40 0067  02.08.2006

@<TRIPOS>MOLECULE
ASD01880018
  47   49    0    0    0
SMALL
NO_CHARGES


@<TRIPOS>ATOM
   1 N1            -0.0127     1.2882     0.1290 N.2     
   2 N2             0.0042     0.0012     0.1077 N.pl3   
   3 N3             1.2257    -0.4089     0.0843 N.2     
   4 C4             2.0076     0.6524     0.0910 C.2     
   5 N5             1.2016     1.7232     0.1195 N.2     
   6 C6             3.4918     0.6602     0.0715 C.ar    
   7 C7             4.1836     1.8697     0.0817 C.ar    
   8 C8             5.5627     1.8740     0.0635 C.ar    
   9 C9             6.2615     0.6748     0.0346 C.ar    
  10 C10            5.5748    -0.5317     0.0244 C.ar    
  11 C11            4.1959    -0.5420     0.0488 C.ar    
  12 C12           14.0195    -2.7927    -0.1286 C.ar    
  13 C13           14.7060    -1.5813    -0.1187 C.ar    
  14 C14           16.0704    -1.5605    -0.1321 C.ar    
  15 C15           16.7905    -2.7625    -0.1555 C.ar    
  16 C16           16.0998    -3.9880    -0.1650 C.ar    
  17 C17           14.7160    -3.9928    -0.1517 C.ar    
  18 O18           16.7858    -5.1575    -0.1881 O.3     
  19 C19           18.2552    -2.7429    -0.1704 C.2     
  20 C20           18.9901    -1.4323    -0.2858 C.3     
  21 O21           18.8767    -3.7819    -0.0899 O.2     
  22 O22            7.6201     0.6820     0.0159 O.3     
  23 C23            8.2752    -0.5877    -0.0135 C.3     
  24 C24           12.0079    -1.5302    -0.0804 C.3     
  25 C25            9.7908    -0.3792    -0.0312 C.3     
  26 C26           10.4922    -1.7386    -0.0627 C.3     
  27 O27           12.6630    -2.7998    -0.1099 O.3     
  28 H28           -0.7796    -0.5703     0.1096 H       
  29 H29            3.6405     2.8029     0.1035 H       
  30 H30            6.0994     2.8112     0.0714 H       
  31 H31            6.1210    -1.4631     0.0016 H       
  32 H32            3.6622    -1.4809     0.0408 H       
  33 H33           14.1552    -0.6525    -0.1007 H       
  34 H34           16.5957    -0.6169    -0.1251 H       
  35 H35           14.1786    -4.9296    -0.1586 H       
  36 H36           16.9939    -5.5087     0.6885 H       
  37 H37           18.2731    -0.6261    -0.4408 H       
  38 H38           19.5511    -1.2484     0.6305 H       
  39 H39           19.6777    -1.4744    -1.1305 H       
  40 H40            7.9975    -1.1604     0.8714 H       
  41 H41            7.9728    -1.1319    -0.9082 H       
  42 H42           12.2855    -0.9575    -0.9653 H       
  43 H43           12.3102    -0.9859     0.8142 H       
  44 H44           10.0685     0.1935    -0.9161 H       
  45 H45           10.0932     0.1650     0.8634 H       
  46 H46           10.1898    -2.2828    -0.9574 H       
  47 H47           10.2146    -2.3113     0.8221 H       
@<TRIPOS>BOND
   1    1    2 1
   2    1    5 2
   3    2    3 1
   4    2   28 1
   5    3    4 2
   6    4    5 1
   7    4    6 1
   8    6    7 ar
   9    6   11 ar
  10    7    8 ar
  11    7   29 1
  12    8    9 ar
  13    8   30 1
  14    9   10 ar
  15    9   22 1
  16   10   11 ar
  17   10   31 1
  18   11   32 1
  19   12   13 ar
  20   12   17 ar
  21   12   27 1
  22   13   14 ar
  23   13   33 1
  24   14   15 ar
  25   14   34 1
  26   15   16 ar
  27   15   19 1
  28   16   17 ar
  29   16   18 1
  30   17   35 1
  31   18   36 1
  32   19   20 1
  33   19   21 2
  34   20   37 1
  35   20   38 1
  36   20   39 1
  37   22   23 1
  38   23   25 1
  39   23   40 1
  40   23   41 1
  41   24   27 1
  42   24   26 1
  43   24   42 1
  44   24   43 1
  45   25   26 1
  46   25   44 1
  47   25   45 1
  48   26   46 1
  49   26   47 1

#	End of record

