#	Name: ASD01911362
#	Creating user name:	WinNT
#	Creation time:	15. 06. 2019 19:57

#	Modifying user name:	WinNT
#	Modification time:	15. 06. 2019 19:57

#	Program:	/corina/corina34_cracker 3.40 0067  02.08.2006

@<TRIPOS>MOLECULE
ASD01911362
  47   50    0    0    0
SMALL
NO_CHARGES


@<TRIPOS>ATOM
   1 C1            -0.0173     1.4278     0.0099 C.ar    
   2 C2             0.0021    -0.0041     0.0020 C.1     
   3 C3             0.0180    -1.1779    -0.0044 C.1     
   4 C4             0.0374    -2.6098    -0.0123 C.ar    
   5 N5            -1.1126    -3.2811    -0.0049 N.ar    
   6 C6            -1.1402    -4.5954    -0.0112 C.ar    
   7 C7             0.0510    -5.3261    -0.0425 C.ar    
   8 C8             1.2772    -4.6524    -0.0437 C.ar    
   9 C9             1.2645    -3.2821    -0.0335 C.ar    
  10 C10           -2.4537    -5.3334     0.0370 C.3     
  11 C11           -2.3547    -6.6317    -0.7597 C.3     
  12 N12           -1.1813    -7.4044    -0.3586 N.am    
  13 C13           -0.0076    -6.7989    -0.0944 C.2     
  14 O14            0.9942    -7.4602     0.0991 O.2     
  15 C15           -1.2832    -8.8612    -0.2415 C.3     
  16 C16           -0.2929    -9.5380    -1.2054 C.3     
  17 C17            0.6706   -10.3705    -0.3345 C.3     
  18 C18           -0.1279   -10.6387     0.9653 C.3     
  19 C19           -0.8868    -9.3060     1.1815 C.3     
  20 C20            1.1813     2.1464     0.0023 C.ar    
  21 C21            1.1546     3.5254     0.0095 C.ar    
  22 C22           -0.0549     4.1973     0.0242 C.ar    
  23 C23           -1.2461     3.4925     0.0322 C.ar    
  24 C24           -1.2354     2.1137     0.0194 C.ar    
  25 C25            2.4996     1.4165    -0.0132 C.3     
  26 H26            2.2092    -5.1980    -0.0566 H       
  27 H27            2.1912    -2.7273    -0.0335 H       
  28 H28           -2.7014    -5.5632     1.0733 H       
  29 H29           -3.2366    -4.7064    -0.3895 H       
  30 H30           -3.2514    -7.2268    -0.5869 H       
  31 H31           -2.2820    -6.3955    -1.8213 H       
  32 H32           -2.3004    -9.1832    -0.4643 H       
  33 H33           -0.8295   -10.1891    -1.8955 H       
  34 H34            0.2634    -8.7826    -1.7603 H       
  35 H35            0.9188   -11.3089    -0.8303 H       
  36 H36            1.5749    -9.8024    -0.1163 H       
  37 H37           -0.8271   -11.4632     0.8260 H       
  38 H38            0.5461   -10.8390     1.7983 H       
  39 H39           -0.2340    -8.5660     1.6445 H       
  40 H40           -1.7752    -9.4675     1.7920 H       
  41 H41            2.0800     4.0821     0.0040 H       
  42 H42           -0.0696     5.2772     0.0297 H       
  43 H43           -2.1863     4.0238     0.0444 H       
  44 H44           -2.1657     1.5651     0.0257 H       
  45 H45            2.8081     1.2453    -1.0445 H       
  46 H46            3.2533     2.0167     0.4966 H       
  47 H47            2.3911     0.4595     0.4972 H       
@<TRIPOS>BOND
   1    1    2 1
   2    1   20 ar
   3    1   24 ar
   4    2    3 3
   5    3    4 1
   6    4    5 ar
   7    4    9 ar
   8    5    6 ar
   9    6    7 ar
  10    6   10 1
  11    7    8 ar
  12    7   13 1
  13    8    9 ar
  14    8   26 1
  15    9   27 1
  16   10   11 1
  17   10   28 1
  18   10   29 1
  19   11   12 1
  20   11   30 1
  21   11   31 1
  22   12   13 am
  23   12   15 1
  24   13   14 2
  25   15   16 1
  26   15   19 1
  27   15   32 1
  28   16   17 1
  29   16   33 1
  30   16   34 1
  31   17   18 1
  32   17   35 1
  33   17   36 1
  34   18   19 1
  35   18   37 1
  36   18   38 1
  37   19   39 1
  38   19   40 1
  39   20   21 ar
  40   20   25 1
  41   21   22 ar
  42   21   41 1
  43   22   23 ar
  44   22   42 1
  45   23   24 ar
  46   23   43 1
  47   24   44 1
  48   25   45 1
  49   25   46 1
  50   25   47 1

#	End of record

