#	Name: ASD02039232
#	Creating user name:	WinNT
#	Creation time:	15. 06. 2019 20:17

#	Modifying user name:	WinNT
#	Modification time:	15. 06. 2019 20:17

#	Program:	/corina/corina34_cracker 3.40 0067  02.08.2006

@<TRIPOS>MOLECULE
ASD02039232
  43   46    0    0    0
SMALL
NO_CHARGES


@<TRIPOS>ATOM
   1 N1             0.0025     1.2566     0.3780 N.2     
   2 C2             0.0062    -0.0136     0.0898 C.2     
   3 S3             1.6825    -0.4971    -0.1783 S.3     
   4 C4             2.1780     1.1644     0.1515 C.2     
   5 N5             1.1134     1.8526     0.4081 N.2     
   6 N6            -1.1067    -0.8380     0.0081 N.pl3   
   7 C7            -2.3909    -0.2941     0.1284 C.ar    
   8 C8            -2.6312     1.0147    -0.2691 C.ar    
   9 C9            -3.8984     1.5504    -0.1500 C.ar    
  10 C10           -4.9311     0.7818     0.3665 C.ar    
  11 C11           -4.6920    -0.5256     0.7639 C.ar    
  12 C12           -3.4267    -1.0648     0.6402 C.ar    
  13 O13           -6.1786     1.3103     0.4839 O.3     
  14 C14            3.5909     1.6883     0.1366 C.3     
  15 O15            4.1612     1.5573     1.4404 O.3     
  16 C16            5.4413     1.9867     1.6001 C.ar    
  17 C17            6.1321     2.5242     0.5169 C.ar    
  18 C18            7.4295     2.9647     0.6603 C.ar    
  19 C19            8.0611     2.8746     1.8959 C.ar    
  20 C20            7.3665     2.3320     2.9936 C.ar    
  21 C21            6.0480     1.8930     2.8367 C.ar    
  22 N22            9.3607     3.3095     2.0598 N.am    
  23 C23            9.9739     3.2226     3.2530 C.2     
  24 C24            9.3215     2.6864     4.3838 C.2     
  25 C25            8.0440     2.2422     4.2885 C.2     
  26 O26           11.1224     3.6166     3.3609 O.2     
  27 C27           -7.1942     0.4624     1.0239 C.3     
  28 F28           -6.8316     0.0644     2.3151 F       
  29 F29           -8.4060     1.1599     1.0739 F       
  30 F30           -7.3395    -0.6671     0.2112 F       
  31 H31           -0.9950    -1.7913    -0.1323 H       
  32 H32           -1.8272     1.6134    -0.6709 H       
  33 H33           -4.0853     2.5683    -0.4587 H       
  34 H34           -5.4966    -1.1232     1.1662 H       
  35 H35           -3.2408    -2.0827     0.9495 H       
  36 H36            4.1829     1.1165    -0.5780 H       
  37 H37            3.5858     2.7388    -0.1539 H       
  38 H38            5.6462     2.5960    -0.4449 H       
  39 H39            7.9559     3.3795    -0.1866 H       
  40 H40            5.5104     1.4763     3.6757 H       
  41 H41            9.8388     3.6829     1.3028 H       
  42 H42            9.8417     2.6301     5.3286 H       
  43 H43            7.5372     1.8311     5.1490 H       
@<TRIPOS>BOND
   1    1    2 2
   2    1    5 1
   3    2    3 1
   4    2    6 1
   5    3    4 1
   6    4    5 2
   7    4   14 1
   8    6    7 1
   9    6   31 1
  10    7    8 ar
  11    7   12 ar
  12    8    9 ar
  13    8   32 1
  14    9   10 ar
  15    9   33 1
  16   10   11 ar
  17   10   13 1
  18   11   12 ar
  19   11   34 1
  20   12   35 1
  21   13   27 1
  22   14   15 1
  23   14   36 1
  24   14   37 1
  25   15   16 1
  26   16   17 ar
  27   16   21 ar
  28   17   18 ar
  29   17   38 1
  30   18   19 ar
  31   18   39 1
  32   19   20 ar
  33   19   22 1
  34   20   21 ar
  35   20   25 1
  36   21   40 1
  37   22   23 am
  38   22   41 1
  39   23   24 1
  40   23   26 2
  41   24   25 2
  42   24   42 1
  43   25   43 1
  44   27   28 1
  45   27   29 1
  46   27   30 1

#	End of record

