#	Name: ASD01912319
#	Creating user name:	WinNT
#	Creation time:	15. 06. 2019 19:59

#	Modifying user name:	WinNT
#	Modification time:	15. 06. 2019 19:59

#	Program:	/corina/corina34_cracker 3.40 0067  02.08.2006

@<TRIPOS>MOLECULE
ASD01912319
  52   54    0    0    0
SMALL
NO_CHARGES


@<TRIPOS>ATOM
   1 C1            -0.1306     1.6270    -1.2082 C.ar    
   2 C2            -0.1124     0.2415    -1.3935 C.ar    
   3 C3             1.0989    -0.3917    -1.6025 C.ar    
   4 C4             2.2553     0.3770    -1.6201 C.ar    
   5 C5             2.1660     1.7439    -1.4299 C.ar    
   6 N6             1.0009     2.3254    -1.2325 N.ar    
   7 C7             3.4197     2.5799    -1.4487 C.3     
   8 C8            -1.3770     2.2996    -0.9965 C.1     
   9 C9            -2.3988     2.8511    -0.8230 C.1     
  10 C10           -3.6451     3.5238    -0.6113 C.2     
  11 N11           -3.6028     7.1937     0.9964 N.am    
  12 C12           -4.8460     6.4151     1.0668 C.3     
  13 C13           -4.9742     5.5733    -0.2092 C.3     
  14 C14           -3.6679     4.8441    -0.4342 C.2     
  15 C15           -2.3880     5.6506    -0.4537 C.3     
  16 C16           -2.3246     6.4905     0.8283 C.3     
  17 C17           -3.6352     8.5385     1.0796 C.2     
  18 C18           -2.3750     9.3048     1.1388 C.ar    
  19 C19           -2.2265    10.4675     0.3785 C.ar    
  20 C20           -1.0488    11.1824     0.4353 C.ar    
  21 C21           -0.0084    10.7488     1.2476 C.ar    
  22 C22           -0.1508     9.5898     2.0081 C.ar    
  23 C23           -1.3304     8.8721     1.9595 C.ar    
  24 O24           -4.7024     9.1204     1.1060 O.2     
  25 O25            0.8695     9.1680     2.8022 O.3     
  26 C26            0.6546     7.9721     3.5542 C.3     
  27 O27            1.1502    11.4559     1.3002 O.3     
  28 C28            1.2387    12.4836     2.2891 C.3     
  29 Cl29          -0.8656    12.6266    -0.5103 Cl      
  30 H30           -1.0310    -0.3260    -1.3734 H       
  31 H31            1.1448    -1.4608    -1.7484 H       
  32 H32            3.2164    -0.0888    -1.7807 H       
  33 H33            3.6173     2.9157    -2.4667 H       
  34 H34            3.2889     3.4457    -0.7995 H       
  35 H35            4.2598     1.9831    -1.0934 H       
  36 H36           -4.5666     2.9608    -0.5953 H       
  37 H37           -4.8172     5.7585     1.9364 H       
  38 H38           -5.6970     7.0916     1.1452 H       
  39 H39           -5.7823     4.8510    -0.0927 H       
  40 H40           -5.1824     6.2238    -1.0586 H       
  41 H41           -1.5311     4.9782    -0.4947 H       
  42 H42           -2.3814     6.3076    -1.3235 H       
  43 H43           -1.5156     7.2167     0.7498 H       
  44 H44           -2.1510     5.8382     1.6842 H       
  45 H45           -3.0339    10.8062    -0.2538 H       
  46 H46           -1.4432     7.9759     2.5517 H       
  47 H47           -0.1972     8.1098     4.2202 H       
  48 H48            0.4531     7.1456     2.8726 H       
  49 H49            1.5440     7.7485     4.1433 H       
  50 H50            2.2125    12.9687     2.2228 H       
  51 H51            0.4535    13.2202     2.1188 H       
  52 H52            1.1175    12.0458     3.2799 H       
@<TRIPOS>BOND
   1    1    2 ar
   2    1    6 ar
   3    1    8 1
   4    2    3 ar
   5    2   30 1
   6    3    4 ar
   7    3   31 1
   8    4    5 ar
   9    4   32 1
  10    5    6 ar
  11    5    7 1
  12    7   33 1
  13    7   34 1
  14    7   35 1
  15    8    9 3
  16    9   10 1
  17   10   14 2
  18   10   36 1
  19   11   12 1
  20   11   16 1
  21   11   17 am
  22   12   13 1
  23   12   37 1
  24   12   38 1
  25   13   14 1
  26   13   39 1
  27   13   40 1
  28   14   15 1
  29   15   16 1
  30   15   41 1
  31   15   42 1
  32   16   43 1
  33   16   44 1
  34   17   18 1
  35   17   24 2
  36   18   19 ar
  37   18   23 ar
  38   19   20 ar
  39   19   45 1
  40   20   21 ar
  41   20   29 1
  42   21   22 ar
  43   21   27 1
  44   22   23 ar
  45   22   25 1
  46   23   46 1
  47   25   26 1
  48   26   47 1
  49   26   48 1
  50   26   49 1
  51   27   28 1
  52   28   50 1
  53   28   51 1
  54   28   52 1

#	End of record

