#	Name: ASD08070557
#	Creating user name:	WinNT
#	Creation time:	15. 06. 2019 21:15

#	Modifying user name:	WinNT
#	Modification time:	15. 06. 2019 21:15

#	Program:	/corina/corina34_cracker 3.40 0067  02.08.2006

@<TRIPOS>MOLECULE
ASD08070557
  44   44    0    0    0
SMALL
NO_CHARGES


@<TRIPOS>ATOM
   1 C1            -0.0168     1.3857     0.0097 C.ar    
   2 C2             0.0021    -0.0041     0.0020 C.ar    
   3 C3             1.2130    -0.6863    -0.0128 C.ar    
   4 C4             2.3993     0.0129    -0.0200 C.ar    
   5 C5             2.3846     1.4101    -0.0128 C.ar    
   6 C6             1.1652     2.0922     0.0022 C.ar    
   7 C7             3.6539     2.1635    -0.0204 C.2     
   8 O8             4.7140     1.5683    -0.0330 O.2     
   9 N9             3.6377     3.5111    -0.0135 N.am    
  10 C10            4.8974     4.2589    -0.0210 C.3     
  11 C11            5.3872     4.4183    -1.4617 C.3     
  12 C12            4.6743     5.6403     0.5976 C.3     
  13 C13            4.3051     5.4843     2.0742 C.3     
  14 C14            4.0819     6.8657     2.6928 C.3     
  15 C15            5.7291     3.0434    -2.0393 C.3     
  16 C16            6.2189     3.2028    -3.4800 C.3     
  17 O17           -1.1649    -0.6968     0.0095 O.3     
  18 C18           -1.0730    -2.1228     0.0009 C.3     
  19 C19           -2.4796    -2.7246     0.0112 C.3     
  20 H20           -0.9597     1.9122     0.0170 H       
  21 H21            1.2235    -1.7663    -0.0183 H       
  22 H22            3.3397    -0.5180    -0.0307 H       
  23 H23            1.1497     3.1721     0.0074 H       
  24 H24            2.7919     3.9859    -0.0034 H       
  25 H25            5.6448     3.7175     0.5590 H       
  26 H26            4.6040     4.8803    -2.0627 H       
  27 H27            6.2758     5.0495    -1.4757 H       
  28 H28            5.5878     6.2288     0.5117 H       
  29 H29            3.8648     6.1472     0.0723 H       
  30 H30            3.3916     4.8958     2.1601 H       
  31 H31            5.1145     4.9774     2.5995 H       
  32 H32            3.2725     7.3726     2.1675 H       
  33 H33            3.8189     6.7546     3.7447 H       
  34 H34            4.9954     7.4542     2.6069 H       
  35 H35            6.5124     2.5814    -1.4383 H       
  36 H36            4.8406     2.4123    -2.0254 H       
  37 H37            6.4625     2.2233    -3.8914 H       
  38 H38            5.4357     3.6648    -4.0810 H       
  39 H39            7.1075     3.8340    -3.4939 H       
  40 H40           -0.5454    -2.4475    -0.8959 H       
  41 H41           -0.5283    -2.4570     0.8840 H       
  42 H42           -3.0072    -2.3999     0.9080 H       
  43 H43           -3.0243    -2.3903    -0.8718 H       
  44 H44           -2.4095    -3.8123     0.0047 H       
@<TRIPOS>BOND
   1    1    2 ar
   2    1    6 ar
   3    1   20 1
   4    2    3 ar
   5    2   17 1
   6    3    4 ar
   7    3   21 1
   8    4    5 ar
   9    4   22 1
  10    5    6 ar
  11    5    7 1
  12    6   23 1
  13    7    8 2
  14    7    9 am
  15    9   10 1
  16    9   24 1
  17   10   11 1
  18   10   12 1
  19   10   25 1
  20   11   15 1
  21   11   26 1
  22   11   27 1
  23   12   13 1
  24   12   28 1
  25   12   29 1
  26   13   14 1
  27   13   30 1
  28   13   31 1
  29   14   32 1
  30   14   33 1
  31   14   34 1
  32   15   16 1
  33   15   35 1
  34   15   36 1
  35   16   37 1
  36   16   38 1
  37   16   39 1
  38   17   18 1
  39   18   19 1
  40   18   40 1
  41   18   41 1
  42   19   42 1
  43   19   43 1
  44   19   44 1

#	End of record

