#	Name: ASD09890072
#	Creating user name:	WinNT
#	Creation time:	15. 06. 2019 21:24

#	Modifying user name:	WinNT
#	Modification time:	15. 06. 2019 21:24

#	Program:	/corina/corina34_cracker 3.40 0067  02.08.2006

@<TRIPOS>MOLECULE
ASD09890072
  45   48    0    0    0
SMALL
NO_CHARGES


@<TRIPOS>ATOM
   1 C1            -0.0176     1.3671     0.0630 C.2     
   2 N2            -0.0054    -0.0002     0.0334 N.pl3   
   3 C3            -1.2996    -0.4352     0.1161 C.2     
   4 N4            -2.0759     0.6191     0.1934 N.2     
   5 N5            -1.2621     1.7591     0.1646 N.2     
   6 S6            -1.8301    -2.1155     0.1184 S.3     
   7 C7            -3.6338    -1.9737     0.2494 C.3     
   8 C8             1.1336    -0.8132    -0.0650 C.ar    
   9 C9             2.0777    -0.8326     0.9575 C.ar    
  10 C10            3.1859    -1.6520     0.8149 C.ar    
  11 C11            3.3168    -2.4172    -0.3287 C.ar    
  12 N12            2.4041    -2.3756    -1.2797 N.ar    
  13 C13            1.3327    -1.6144    -1.1811 C.ar    
  14 C14           -4.2813    -3.3652     0.1397 C.3     
  15 C15           -5.0391    -3.6041     1.4620 C.3     
  16 C16           -5.3165    -2.1797     2.0036 C.3     
  17 C17           -4.0208    -1.4155     1.6345 C.3     
  18 O18            1.0702     2.1752     0.0035 O.3     
  19 C19            0.8650     3.5150    -0.0919 C.ar    
  20 C20           -0.4173     4.0100    -0.2838 C.ar    
  21 C21            1.9363     4.3910     0.0081 C.ar    
  22 C22            1.7249     5.7528    -0.0888 C.ar    
  23 C23            0.4471     6.2430    -0.2848 C.ar    
  24 C24           -0.6231     5.3723    -0.3799 C.ar    
  25 C25            2.8881     6.7048     0.0196 C.3     
  26 H26           -4.0149    -1.3216    -0.5365 H       
  27 H27            1.9498    -0.2236     1.8403 H       
  28 H28            3.9388    -1.6921     1.5882 H       
  29 H29            4.1786    -3.0577    -0.4451 H       
  30 H30            0.6069    -1.6068    -1.9808 H       
  31 H31           -4.9772    -3.3882    -0.6989 H       
  32 H32           -3.5117    -4.1258     0.0078 H       
  33 H33           -5.9753    -4.1303     1.2755 H       
  34 H34           -4.4185    -4.1641     2.1616 H       
  35 H35           -6.1801    -1.7387     1.5060 H       
  36 H36           -5.4595    -2.1983     3.0840 H       
  37 H37           -3.2357    -1.6220     2.3619 H       
  38 H38           -4.2138    -0.3444     1.5738 H       
  39 H39           -1.2534     3.3305    -0.3581 H       
  40 H40            2.9346     4.0086     0.1618 H       
  41 H41            0.2840     7.3080    -0.3599 H       
  42 H42           -1.6203     5.7578    -0.5330 H       
  43 H43            3.3052     6.8832    -0.9715 H       
  44 H44            2.5468     7.6484     0.4454 H       
  45 H45            3.6535     6.2715     0.6634 H       
@<TRIPOS>BOND
   1    1    2 1
   2    1   18 1
   3    1    5 2
   4    2    3 1
   5    2    8 1
   6    3    4 2
   7    3    6 1
   8    4    5 1
   9    6    7 1
  10    7   14 1
  11    7   17 1
  12    7   26 1
  13    8    9 ar
  14    8   13 ar
  15    9   10 ar
  16    9   27 1
  17   10   11 ar
  18   10   28 1
  19   11   12 ar
  20   11   29 1
  21   12   13 ar
  22   13   30 1
  23   14   15 1
  24   14   31 1
  25   14   32 1
  26   15   16 1
  27   15   33 1
  28   15   34 1
  29   16   17 1
  30   16   35 1
  31   16   36 1
  32   17   37 1
  33   17   38 1
  34   18   19 1
  35   19   20 ar
  36   19   21 ar
  37   20   24 ar
  38   20   39 1
  39   21   22 ar
  40   21   40 1
  41   22   23 ar
  42   22   25 1
  43   23   24 ar
  44   23   41 1
  45   24   42 1
  46   25   43 1
  47   25   44 1
  48   25   45 1

#	End of record

