#	Name: ASD01350057
#	Creating user name:	WinNT
#	Creation time:	15. 06. 2019 19:16

#	Modifying user name:	WinNT
#	Modification time:	15. 06. 2019 19:16

#	Program:	/corina/corina34_cracker 3.40 0067  02.08.2006

@<TRIPOS>MOLECULE
ASD01350057
  76   77    0    0    0
SMALL
NO_CHARGES


@<TRIPOS>ATOM
   1 C1            -0.0187     1.5258     0.0104 C.3     
   2 C2             0.0021    -0.0041     0.0020 C.3     
   3 C3             0.7421    -0.5109     1.2415 C.3     
   4 C4             0.7628    -2.0407     1.2331 C.3     
   5 C5             1.5028    -2.5476     2.4727 C.3     
   6 C6             1.5236    -4.0774     2.4642 C.3     
   7 C7             2.2636    -4.5842     3.7038 C.3     
   8 C8             2.2843    -6.1141     3.6954 C.3     
   9 C9             3.0243    -6.6209     4.9349 C.3     
  10 C10            3.0447    -8.1278     4.9266 C.2     
  11 O11            2.5192    -8.7364     4.0187 O.2     
  12 N12            3.6470    -8.7991     5.9281 N.am    
  13 C13            3.6669   -10.2639     5.9201 C.3     
  14 C14            4.8972   -10.7456     5.1953 C.ar    
  15 C15            6.0695   -10.9633     5.8969 C.ar    
  16 C16            7.2031   -11.4051     5.2408 C.ar    
  17 C17            7.1701   -11.6324     3.8746 C.ar    
  18 C18            5.9867   -11.4132     3.1628 C.ar    
  19 C19            4.8489   -10.9734     3.8346 C.ar    
  20 C20            5.9418   -11.6538     1.6997 C.ar    
  21 C21            6.9201   -11.1045     0.8713 C.ar    
  22 C22            6.8813   -11.3266    -0.4919 C.ar    
  23 C23            5.8752   -12.0929    -1.0439 C.ar    
  24 C24            4.8886   -12.6496    -0.2248 C.ar    
  25 C25            4.9271   -12.4322     1.1527 C.ar    
  26 C26            3.8123   -13.4687    -0.8149 C.2     
  27 O27            3.7825   -13.6612    -2.0222 O.co2   
  28 O28            2.9502   -13.9548    -0.0967 O.co2   
  29 O29            8.2837   -12.0661     3.2286 O.3     
  30 C30            9.4560   -12.2677     4.0205 C.3     
  31 C31            4.2819    -8.0639     7.0248 C.3     
  32 C32            3.2607    -7.8288     8.1397 C.3     
  33 N33            3.8973    -7.0917     9.2394 N.3     
  34 C34            2.8990    -6.6411    10.2184 C.3     
  35 C35            4.9380    -7.9034     9.8842 C.3     
  36 H36            1.0039     1.9031     0.0027 H       
  37 H37           -0.5459     1.8868    -0.8726 H       
  38 H38           -0.5289     1.8773     0.9072 H       
  39 H39           -1.0205    -0.3814     0.0098 H       
  40 H40            0.5123    -0.3556    -0.8948 H       
  41 H41            1.7647    -0.1336     1.2338 H       
  42 H42            0.2319    -0.1594     2.1383 H       
  43 H43           -0.2598    -2.4180     1.2409 H       
  44 H44            1.2730    -2.3923     0.3363 H       
  45 H45            2.5254    -2.1703     2.4649 H       
  46 H46            0.9926    -2.1961     3.3695 H       
  47 H47            0.5010    -4.4547     2.4720 H       
  48 H48            2.0337    -4.4289     1.5675 H       
  49 H49            3.2861    -4.2070     3.6960 H       
  50 H50            1.7534    -4.2327     4.6006 H       
  51 H51            1.2617    -6.4914     3.7031 H       
  52 H52            2.7945    -6.4656     2.7986 H       
  53 H53            4.0469    -6.2436     4.9271 H       
  54 H54            2.5141    -6.2694     5.8317 H       
  55 H55            3.6816   -10.6327     6.9457 H       
  56 H56            2.7771   -10.6365     5.4127 H       
  57 H57            6.0992   -10.7870     6.9620 H       
  58 H58            8.1155   -11.5730     5.7938 H       
  59 H59            3.9319   -10.8024     3.2901 H       
  60 H60            7.7102   -10.5035     1.2966 H       
  61 H61            7.6415   -10.8983    -1.1283 H       
  62 H62            5.8497   -12.2624    -2.1102 H       
  63 H63            4.1679   -12.8600     1.7907 H       
  64 H64            9.7398   -11.3284     4.4951 H       
  65 H65            9.2523   -13.0152     4.7874 H       
  66 H66           10.2699   -12.6134     3.3833 H       
  67 H67            5.1184    -8.6438     7.4147 H       
  68 H68            4.6452    -7.1044     6.6567 H       
  69 H69            2.4242    -7.2489     7.7498 H       
  70 H70            2.8974    -8.7883     8.5078 H       
  71 H71            2.3795    -7.5056    10.6317 H       
  72 H72            3.3972    -6.0983    11.0217 H       
  73 H73            2.1797    -5.9851     9.7282 H       
  74 H74            5.7010    -8.1650     9.1511 H       
  75 H75            5.3930    -7.3338    10.6946 H       
  76 H76            4.4924    -8.8136    10.2855 H       
@<TRIPOS>BOND
   1    1    2 1
   2    1   36 1
   3    1   37 1
   4    1   38 1
   5    2    3 1
   6    2   39 1
   7    2   40 1
   8    3    4 1
   9    3   41 1
  10    3   42 1
  11    4    5 1
  12    4   43 1
  13    4   44 1
  14    5    6 1
  15    5   45 1
  16    5   46 1
  17    6    7 1
  18    6   47 1
  19    6   48 1
  20    7    8 1
  21    7   49 1
  22    7   50 1
  23    8    9 1
  24    8   51 1
  25    8   52 1
  26    9   10 1
  27    9   53 1
  28    9   54 1
  29   10   11 2
  30   10   12 am
  31   12   13 1
  32   12   31 1
  33   13   14 1
  34   13   55 1
  35   13   56 1
  36   14   15 ar
  37   14   19 ar
  38   15   16 ar
  39   15   57 1
  40   16   17 ar
  41   16   58 1
  42   17   18 ar
  43   17   29 1
  44   18   19 ar
  45   18   20 1
  46   19   59 1
  47   20   21 ar
  48   20   25 ar
  49   21   22 ar
  50   21   60 1
  51   22   23 ar
  52   22   61 1
  53   23   24 ar
  54   23   62 1
  55   24   25 ar
  56   24   26 1
  57   25   63 1
  58   26   27 ar
  59   26   28 ar
  60   29   30 1
  61   30   64 1
  62   30   65 1
  63   30   66 1
  64   31   32 1
  65   31   67 1
  66   31   68 1
  67   32   33 1
  68   32   69 1
  69   32   70 1
  70   33   34 1
  71   33   35 1
  72   34   71 1
  73   34   72 1
  74   34   73 1
  75   35   74 1
  76   35   75 1
  77   35   76 1

#	End of record

