#	Name: ASD01816909
#	Creating user name:	WinNT
#	Creation time:	15. 06. 2019 19:36

#	Modifying user name:	WinNT
#	Modification time:	15. 06. 2019 19:36

#	Program:	/corina/corina34_cracker 3.40 0067  02.08.2006

@<TRIPOS>MOLECULE
ASD01816909
  52   56    0    0    0
SMALL
NO_CHARGES


@<TRIPOS>ATOM
   1 C1            -0.0168     1.3875     0.0097 C.ar    
   2 C2             0.0021    -0.0041     0.0020 C.ar    
   3 C3             1.1960    -0.6699    -0.0129 C.ar    
   4 C4             2.3807     0.0881    -0.0201 C.ar    
   5 C5             2.2853     1.5002    -0.0117 C.ar    
   6 N6             1.0921     2.0897     0.0029 N.ar    
   7 C7             3.6444    -0.5353    -0.0360 C.ar    
   8 C8             4.7855     0.1954    -0.0429 C.ar    
   9 C9             4.7497     1.5981    -0.0347 C.ar    
  10 C10            3.5210     2.2812    -0.0193 C.ar    
  11 C11            5.9801     2.4017    -0.0417 C.2     
  12 N12            5.8452     3.7482    -0.0328 N.am    
  13 C13            4.6135     4.3167    -0.0181 C.2     
  14 N14            3.5116     3.6249    -0.0121 N.2     
  15 C15            7.0383     4.5984    -0.0388 C.3     
  16 C16            7.0238     5.4888    -1.2829 C.3     
  17 C17            7.0463     5.4747     1.2155 C.3     
  18 C18            8.2923     6.3626     1.2093 C.3     
  19 C19            8.2778     7.2530    -0.0348 C.3     
  20 C20            8.2698     6.3768    -1.2891 C.3     
  21 O21            7.0598     4.6430     2.3775 O.3     
  22 O22            7.0785     1.8762    -0.0546 O.2     
  23 C23            3.7281    -2.0399    -0.0447 C.3     
  24 C24            3.6184    -2.5409    -1.4618 C.ar    
  25 C25            4.7579    -2.7037    -2.2273 C.ar    
  26 C26            4.6579    -3.1631    -3.5270 C.ar    
  27 C27            3.4170    -3.4600    -4.0619 C.ar    
  28 C28            2.2769    -3.2969    -3.2953 C.ar    
  29 C29            2.3787    -2.8428    -1.9938 C.ar    
  30 Cl30           3.2905    -4.0365    -5.6945 Cl      
  31 H31           -0.9664     1.9018     0.0169 H       
  32 H32           -0.9254    -0.5573     0.0082 H       
  33 H33            1.2286    -1.7494    -0.0187 H       
  34 H34            5.7395    -0.3108    -0.0547 H       
  35 H35            4.5443     5.3944    -0.0113 H       
  36 H36            7.9305     3.9724    -0.0503 H       
  37 H37            7.0181     4.8646    -2.1764 H       
  38 H38            6.1316     6.1149    -1.2713 H       
  39 H39            6.1541     6.1007     1.2270 H       
  40 H40            8.2980     6.9868     2.1028 H       
  41 H41            9.1845     5.7366     1.1977 H       
  42 H42            7.3856     7.8790    -0.0233 H       
  43 H43            9.1655     7.8856    -0.0393 H       
  44 H44            9.1620     5.7508    -1.3006 H       
  45 H45            8.2595     7.0111    -2.1754 H       
  46 H46            7.0655     5.1325     3.2114 H       
  47 H47            4.6825    -2.3532     0.3785 H       
  48 H48            2.9137    -2.4526     0.5506 H       
  49 H49            5.7265    -2.4715    -1.8098 H       
  50 H50            5.5482    -3.2899    -4.1251 H       
  51 H51            1.3079    -3.5285    -3.7123 H       
  52 H52            1.4888    -2.7154    -1.3953 H       
@<TRIPOS>BOND
   1    1    2 ar
   2    1    6 ar
   3    1   31 1
   4    2    3 ar
   5    2   32 1
   6    3    4 ar
   7    3   33 1
   8    4    5 ar
   9    4    7 ar
  10    5    6 ar
  11    5   10 ar
  12    7    8 ar
  13    7   23 1
  14    8    9 ar
  15    8   34 1
  16    9   10 ar
  17    9   11 1
  18   10   14 1
  19   11   12 am
  20   11   22 2
  21   12   13 1
  22   12   15 1
  23   13   14 2
  24   13   35 1
  25   15   16 1
  26   15   17 1
  27   15   36 1
  28   16   20 1
  29   16   37 1
  30   16   38 1
  31   17   18 1
  32   17   21 1
  33   17   39 1
  34   18   19 1
  35   18   40 1
  36   18   41 1
  37   19   20 1
  38   19   42 1
  39   19   43 1
  40   20   44 1
  41   20   45 1
  42   21   46 1
  43   23   24 1
  44   23   47 1
  45   23   48 1
  46   24   25 ar
  47   24   29 ar
  48   25   26 ar
  49   25   49 1
  50   26   27 ar
  51   26   50 1
  52   27   28 ar
  53   27   30 1
  54   28   29 ar
  55   28   51 1
  56   29   52 1

#	End of record

