#	Name: ASD03090692
#	Creating user name:	WinNT
#	Creation time:	15. 06. 2019 20:29

#	Modifying user name:	WinNT
#	Modification time:	15. 06. 2019 20:29

#	Program:	/corina/corina34_cracker 3.40 0067  02.08.2006

@<TRIPOS>MOLECULE
ASD03090692
  42   43    0    0    0
SMALL
NO_CHARGES


@<TRIPOS>ATOM
   1 N1            -0.0162     1.3436     0.0094 N.am    
   2 C2             0.0188     0.1475     0.6297 C.2     
   3 O3             1.0721    -0.2859     1.0555 O.2     
   4 N4            -1.1136    -0.5681     0.7781 N.am    
   5 O5            -1.7396    -3.6100     2.2165 O.3     
   6 N6            -2.0868    -2.6078     1.6359 N.2     
   7 C7            -1.0773    -1.8058     1.4200 C.2     
   8 C8             0.0640    -2.4482     1.9696 C.2     
   9 C9            -0.4228    -3.6068     2.4692 C.2     
  10 C10            0.3618    -4.6843     3.1724 C.3     
  11 C11            1.1456     2.1270    -0.0704 C.ar    
  12 C12            1.0461     3.5106    -0.1988 C.ar    
  13 C13            2.1942     4.2809    -0.2769 C.ar    
  14 C14            3.4405     3.6738    -0.2271 C.ar    
  15 C15            3.5377     2.2962    -0.0998 C.ar    
  16 C16            2.3934     1.5252    -0.0159 C.ar    
  17 O17            4.5679     4.4300    -0.3038 O.3     
  18 C18            5.8175     3.7392    -0.2462 C.3     
  19 C19            6.9632     4.7484    -0.3466 C.3     
  20 O20            6.9491     5.6006     0.8005 O.3     
  21 C21            7.9847     6.5852     0.8058 C.3     
  22 O22           -0.1765     4.1038    -0.2478 O.3     
  23 C23           -0.2025     5.5264    -0.3802 C.3     
  24 H24           -0.8434     1.6611    -0.3853 H       
  25 H25           -1.9538    -0.2223     0.4384 H       
  26 H26            1.0840    -2.0934     1.9853 H       
  27 H27           -0.3089    -5.4950     3.4572 H       
  28 H28            1.1321    -5.0682     2.5034 H       
  29 H29            0.8298    -4.2693     4.0650 H       
  30 H30            2.1194     5.3536    -0.3768 H       
  31 H31            4.5090     1.8255    -0.0619 H       
  32 H32            2.4715     0.4531     0.0878 H       
  33 H33            5.8909     3.1989     0.6976 H       
  34 H34            5.8812     3.0338    -1.0747 H       
  35 H35            7.9133     4.2161    -0.3921 H       
  36 H36            6.8399     5.3496    -1.2474 H       
  37 H37            8.9560     6.0911     0.7841 H       
  38 H38            7.8827     7.2245    -0.0712 H       
  39 H39            7.9053     7.1911     1.7083 H       
  40 H40           -1.2366     5.8700    -0.4070 H       
  41 H41            0.3091     5.9797     0.4688 H       
  42 H42            0.3001     5.8146    -1.3035 H       
@<TRIPOS>BOND
   1    1    2 am
   2    1   11 1
   3    1   24 1
   4    2    3 2
   5    2    4 am
   6    4    7 1
   7    4   25 1
   8    5    6 1
   9    5    9 1
  10    6    7 2
  11    7    8 1
  12    8    9 2
  13    8   26 1
  14    9   10 1
  15   10   27 1
  16   10   28 1
  17   10   29 1
  18   11   12 ar
  19   11   16 ar
  20   12   13 ar
  21   12   22 1
  22   13   14 ar
  23   13   30 1
  24   14   15 ar
  25   14   17 1
  26   15   16 ar
  27   15   31 1
  28   16   32 1
  29   17   18 1
  30   18   19 1
  31   18   33 1
  32   18   34 1
  33   19   20 1
  34   19   35 1
  35   19   36 1
  36   20   21 1
  37   21   37 1
  38   21   38 1
  39   21   39 1
  40   22   23 1
  41   23   40 1
  42   23   41 1
  43   23   42 1

#	End of record

