#	Name: ASD07930115
#	Creating user name:	WinNT
#	Creation time:	15. 06. 2019 21:11

#	Modifying user name:	WinNT
#	Modification time:	15. 06. 2019 21:11

#	Program:	/corina/corina34_cracker 3.40 0067  02.08.2006

@<TRIPOS>MOLECULE
ASD07930115
  46   49    0    0    0
SMALL
NO_CHARGES


@<TRIPOS>ATOM
   1 C1            -0.0180     1.4756     0.0102 C.2     
   2 C2             0.0021    -0.0041     0.0020 C.2     
   3 N3             1.1813     2.1510     0.0023 N.am    
   4 N4             1.1194    -0.6399     0.4288 N.am    
   5 C5             2.2492     0.1652     0.9143 C.3     
   6 C6             2.4259     1.3708    -0.0208 C.3     
   7 C7            -1.2009     2.1486     0.0195 C.2     
   8 C8            -1.2250     3.5487     0.0296 C.2     
   9 C9            -0.0457     4.2427     0.0307 C.2     
  10 C10            1.2139     3.4949     0.0143 C.2     
  11 O11           -0.9642    -0.6358    -0.3794 O.2     
  12 O12            2.2807     4.0852     0.0118 O.2     
  13 C13            1.1999    -2.1026     0.4075 C.3     
  14 C14            1.7668    -2.5625    -0.9371 C.3     
  15 O15            3.1153    -2.1077    -1.0662 O.3     
  16 C16            3.7695    -2.4338    -2.2121 C.ar    
  17 C17            5.0813    -2.0246    -2.4035 C.ar    
  18 C18            5.7446    -2.3573    -3.5685 C.ar    
  19 C19            5.1015    -3.0983    -4.5444 C.ar    
  20 C20            3.7933    -3.5068    -4.3556 C.ar    
  21 C21            3.1284    -3.1809    -3.1892 C.ar    
  22 C22            5.7819    -1.2172    -1.3413 C.3     
  23 F23            7.0848    -0.9265    -1.7600 F       
  24 F24            5.0840    -0.0240    -1.1263 F       
  25 F25            5.8275    -1.9517    -0.1515 F       
  26 Cl26           5.9373    -3.5152    -6.0078 Cl      
  27 N27           -0.0429     5.6398     0.0413 N.pl3   
  28 N28            1.0828     6.4796     0.0432 N.2     
  29 C29            0.6370     7.7097     0.0543 C.2     
  30 N30           -0.6963     7.6879     0.0594 N.2     
  31 C31           -1.1203     6.4500     0.0458 C.2     
  32 Cl32           1.6222     9.1391     0.0612 Cl      
  33 H33            2.0425     0.5138     1.9262 H       
  34 H34            3.1572    -0.4379     0.9100 H       
  35 H35            2.6245     1.0242    -1.0350 H       
  36 H36            3.2542     1.9882     0.3269 H       
  37 H37           -2.1298     1.5977     0.0186 H       
  38 H38           -2.1671     4.0767     0.0362 H       
  39 H39            1.8520    -2.4423     1.2121 H       
  40 H40            0.2038    -2.5233     0.5449 H       
  41 H41            1.7441    -3.6511    -0.9878 H       
  42 H42            1.1647    -2.1485    -1.7460 H       
  43 H43            6.7656    -2.0387    -3.7180 H       
  44 H44            3.2930    -4.0848    -5.1186 H       
  45 H45            2.1087    -3.5041    -3.0400 H       
  46 H46           -2.1526     6.1329     0.0414 H       
@<TRIPOS>BOND
   1    1    2 1
   2    1    3 1
   3    1    7 2
   4    2    4 am
   5    2   11 2
   6    3    6 1
   7    3   10 am
   8    4    5 1
   9    4   13 1
  10    5    6 1
  11    5   33 1
  12    5   34 1
  13    6   35 1
  14    6   36 1
  15    7    8 1
  16    7   37 1
  17    8    9 2
  18    8   38 1
  19    9   10 1
  20    9   27 1
  21   10   12 2
  22   13   14 1
  23   13   39 1
  24   13   40 1
  25   14   15 1
  26   14   41 1
  27   14   42 1
  28   15   16 1
  29   16   17 ar
  30   16   21 ar
  31   17   18 ar
  32   17   22 1
  33   18   19 ar
  34   18   43 1
  35   19   20 ar
  36   19   26 1
  37   20   21 ar
  38   20   44 1
  39   21   45 1
  40   22   23 1
  41   22   24 1
  42   22   25 1
  43   27   28 1
  44   27   31 1
  45   28   29 2
  46   29   30 1
  47   29   32 1
  48   30   31 2
  49   31   46 1

#	End of record

