#	Name: ASD03092423
#	Creating user name:	WinNT
#	Creation time:	15. 06. 2019 20:32

#	Modifying user name:	WinNT
#	Modification time:	15. 06. 2019 20:32

#	Program:	/corina/corina34_cracker 3.40 0067  02.08.2006

@<TRIPOS>MOLECULE
ASD03092423
  71   74    0    0    0
SMALL
NO_CHARGES


@<TRIPOS>ATOM
   1 N1             1.9858     0.6910     0.2964 N.pl3   
   2 N2             1.1061    -0.1520     0.7030 N.2     
   3 C3            -0.0895     0.3802     0.6963 C.2     
   4 C4             0.0295     1.6953     0.2411 C.2     
   5 C5             1.3784     1.8752    -0.0114 C.2     
   6 C6             2.0281     3.0974    -0.5110 C.2     
   7 O7             3.2405     3.1521    -0.5920 O.2     
   8 N8             1.2798     4.1563    -0.8788 N.am    
   9 C9            -1.3677    -0.3045     1.1065 C.3     
  10 C10            1.9279     5.4073    -1.2803 C.3     
  11 S11           -0.8197     7.8434    -2.8658 S.3     
  12 C12           -0.5276     8.1007    -1.2013 C.2     
  13 N13            0.3739     7.2713    -0.7685 N.2     
  14 C14            0.8763     6.4247    -1.6409 C.2     
  15 C15            0.3702     6.5444    -2.8861 C.2     
  16 C16            1.4106     5.5350    -6.3507 C.ar    
  17 C17            1.0635     6.3337    -5.2827 C.ar    
  18 C18            0.7468     5.7303    -4.0582 C.ar    
  19 C19            0.7983     4.3322    -3.9777 C.ar    
  20 C20            1.1553     3.6116    -5.0968 C.ar    
  21 N21            1.4465     4.2207    -6.2313 N.ar    
  22 C22            1.2147     2.1075    -5.0244 C.3     
  23 C23            1.7475     6.1703    -7.6751 C.3     
  24 N24           -1.1601     9.0556    -0.4263 N.3     
  25 C25           -2.1244     9.8272    -1.2238 C.3     
  26 C26           -2.7563    10.9090    -0.3439 C.3     
  27 O27           -3.3646    10.2947     0.7954 O.3     
  28 C28           -2.4538     9.5356     1.5951 C.3     
  29 C29           -1.8189     8.4398     0.7348 C.3     
  30 C30           -3.2092     8.8959     2.7617 C.3     
  31 C31           -3.8187    11.6636    -1.1457 C.3     
  32 C32            3.4222     0.4251     0.1858 C.3     
  33 C33            3.7054    -1.0231     0.5901 C.3     
  34 C34            3.8724     0.6486    -1.2593 C.3     
  35 C35            4.1889     1.3722     1.1111 C.3     
  36 H36           -0.7627     2.4180     0.1128 H       
  37 H37            0.3120     4.0900    -0.8778 H       
  38 H38           -1.5383    -0.1476     2.1716 H       
  39 H39           -2.2008     0.1116     0.5399 H       
  40 H40           -1.2886    -1.3728     0.9047 H       
  41 H41            2.5311     5.7852    -0.4548 H       
  42 H42            2.5676     5.2243    -2.1437 H       
  43 H43            1.0366     7.4083    -5.3875 H       
  44 H44            0.5620     3.8272    -3.0527 H       
  45 H45            0.2419     1.6924    -5.2880 H       
  46 H46            1.9677     1.7397    -5.7213 H       
  47 H47            1.4773     1.8026    -4.0114 H       
  48 H48            2.8163     6.3804    -7.7159 H       
  49 H49            1.4798     5.4895    -8.4831 H       
  50 H50            1.1900     7.1006    -7.7841 H       
  51 H51           -1.6105    10.2951    -2.0634 H       
  52 H52           -2.9026     9.1617    -1.5976 H       
  53 H53           -1.9857    11.6056    -0.0137 H       
  54 H54           -1.6744    10.1923     1.9816 H       
  55 H55           -2.5922     7.7522     0.3923 H       
  56 H56           -1.0819     7.8951     1.3249 H       
  57 H57           -3.9870     8.2381     2.3739 H       
  58 H58           -2.5145     8.3175     3.3708 H       
  59 H59           -3.6642     9.6764     3.3716 H       
  60 H60           -4.5897    10.9663    -1.4736 H       
  61 H61           -4.2682    12.4337    -0.5187 H       
  62 H62           -3.3552    12.1283    -2.0159 H       
  63 H63            3.1591    -1.6978    -0.0691 H       
  64 H64            4.7741    -1.2209     0.5078 H       
  65 H65            3.3846    -1.1822     1.6196 H       
  66 H66            3.5053     1.6134    -1.6091 H       
  67 H67            4.9613     0.6352    -1.3068 H       
  68 H68            3.4714    -0.1437    -1.8914 H       
  69 H69            4.0264     1.0777     2.1479 H       
  70 H70            5.2532     1.3217     0.8816 H       
  71 H71            3.8332     2.3918     0.9630 H       
@<TRIPOS>BOND
   1    1    2 1
   2    1    5 1
   3    1   32 1
   4    2    3 2
   5    3    4 1
   6    3    9 1
   7    4    5 2
   8    4   36 1
   9    5    6 1
  10    6    7 2
  11    6    8 am
  12    8   10 1
  13    8   37 1
  14    9   38 1
  15    9   39 1
  16    9   40 1
  17   10   14 1
  18   10   41 1
  19   10   42 1
  20   11   12 1
  21   11   15 1
  22   12   13 2
  23   12   24 1
  24   13   14 1
  25   14   15 2
  26   15   18 1
  27   16   17 ar
  28   16   21 ar
  29   16   23 1
  30   17   18 ar
  31   17   43 1
  32   18   19 ar
  33   19   20 ar
  34   19   44 1
  35   20   21 ar
  36   20   22 1
  37   22   45 1
  38   22   46 1
  39   22   47 1
  40   23   48 1
  41   23   49 1
  42   23   50 1
  43   24   25 1
  44   24   29 1
  45   25   26 1
  46   25   51 1
  47   25   52 1
  48   26   27 1
  49   26   31 1
  50   26   53 1
  51   27   28 1
  52   28   29 1
  53   28   30 1
  54   28   54 1
  55   29   55 1
  56   29   56 1
  57   30   57 1
  58   30   58 1
  59   30   59 1
  60   31   60 1
  61   31   61 1
  62   31   62 1
  63   32   33 1
  64   32   34 1
  65   32   35 1
  66   33   63 1
  67   33   64 1
  68   33   65 1
  69   34   66 1
  70   34   67 1
  71   34   68 1
  72   35   69 1
  73   35   70 1
  74   35   71 1

#	End of record

