#	Name: ASD04880726
#	Creating user name:	WinNT
#	Creation time:	15. 06. 2019 20:53

#	Modifying user name:	WinNT
#	Modification time:	15. 06. 2019 20:53

#	Program:	/corina/corina34_cracker 3.40 0067  02.08.2006

@<TRIPOS>MOLECULE
ASD04880726
  83   88    0    0    0
SMALL
NO_CHARGES


@<TRIPOS>ATOM
   1 C1            -1.0104     1.4676     3.1148 C.ar    
   2 C2            -1.0495     0.0870     3.1299 C.ar    
   3 C3            -0.3439    -0.6365     2.1863 C.ar    
   4 C4             0.4032     0.0189     1.2245 C.ar    
   5 C5             0.4463     1.3989     1.2033 C.ar    
   6 C6            -0.2615     2.1290     2.1500 C.ar    
   7 N7            -0.2201     3.5250     2.1315 N.3     
   8 C8            -0.8266     4.0536     0.9018 C.3     
   9 C9            -0.8335     5.5832     0.9562 C.3     
  10 N10            0.5438     6.0713     1.1126 N.3     
  11 C11            1.1503     5.5427     2.3424 C.3     
  12 C12            1.1571     4.0132     2.2880 C.3     
  13 C13            0.5851     7.4631     1.0942 C.ar    
  14 C14            0.9423     8.1622     2.2415 C.ar    
  15 C15            0.9849     9.5387     2.2276 C.ar    
  16 C16            0.6687    10.2370     1.0589 C.ar    
  17 C17            0.3093     9.5365    -0.0959 C.ar    
  18 C18            0.2730     8.1550    -0.0793 C.ar    
  19 C19           -1.7843     2.2555     4.1401 C.3     
  20 N20           -0.0817     7.4489    -1.2364 N.am    
  21 C21           -0.8792     8.0234    -2.1586 C.2     
  22 C22           -1.3280     7.2493    -3.3299 C.2     
  23 C23           -2.1293     7.6956    -4.3354 C.2     
  24 O24           -2.2874     6.6743    -5.1925 O.3     
  25 C25           -1.5988     5.6237    -4.7244 C.2     
  26 N26           -1.0144     5.9557    -3.6124 N.2     
  27 O27           -1.2284     9.1807    -2.0243 O.2     
  28 C28            0.7139    11.7116     1.0444 C.2     
  29 C29            1.3721    10.2925     3.4737 C.3     
  30 F30            1.6404     9.3845     4.5037 F       
  31 F31            2.5141    11.0594     3.2189 F       
  32 O32            1.0263    12.3202     2.0497 O.2     
  33 N33            0.4089    12.3841    -0.0830 N.am    
  34 C34            0.4538    13.8483    -0.0974 C.3     
  35 C35            0.0670    14.3567    -1.4877 C.3     
  36 C36            0.1138    15.8860    -1.5027 C.3     
  37 N37           -0.2566    16.3728    -2.8339 N.am    
  38 C38           -1.6289    16.6870    -3.2485 C.3     
  39 C39           -1.5936    16.7292    -4.7923 C.3     
  40 C40           -0.1122    17.0789    -5.0643 C.3     
  41 C41            0.6175    16.5946    -3.8307 C.2     
  42 O42            1.8164    16.4283    -3.7531 O.2     
  43 C43           -1.5109     4.2730    -5.3869 C.3     
  44 C44           -2.8168     3.5055    -5.6026 C.3     
  45 C45           -2.0948     4.1371    -6.7945 C.3     
  46 F46            0.3213    11.1336     3.8555 F       
  47 H47           -1.6316    -0.4279     3.8799 H       
  48 H48           -0.3759    -1.7160     2.2006 H       
  49 H49            0.9537    -0.5493     0.4893 H       
  50 H50            1.0301     1.9101     0.4522 H       
  51 H51           -0.2476     3.7230     0.0395 H       
  52 H52           -1.8499     3.6883     0.8148 H       
  53 H53           -1.2565     5.9780     0.0325 H       
  54 H54           -1.4350     5.9143     1.8027 H       
  55 H55            2.1736     5.9080     2.4293 H       
  56 H56            0.5713     5.8733     3.2047 H       
  57 H57            1.5802     3.6183     3.2117 H       
  58 H58            1.7587     3.6821     1.4415 H       
  59 H59            1.1866     7.6247     3.1459 H       
  60 H60            0.0645    10.0735    -1.0004 H       
  61 H61           -1.1888     2.3544     5.0477 H       
  62 H62           -2.0094     3.2455     3.7435 H       
  63 H63           -2.7146     1.7364     4.3708 H       
  64 H64            0.2466     6.5465    -1.3737 H       
  65 H65           -2.5571     8.6831    -4.4262 H       
  66 H66            0.1597    11.8986    -0.8850 H       
  67 H67           -0.2459    14.2405     0.6406 H       
  68 H68            1.4625    14.1833     0.1443 H       
  69 H69            0.7667    13.9645    -2.2257 H       
  70 H70           -0.9417    14.0218    -1.7294 H       
  71 H71           -0.5859    16.2782    -0.7647 H       
  72 H72            1.1225    16.2209    -1.2610 H       
  73 H73           -2.3131    15.9097    -2.9080 H       
  74 H74           -1.9304    17.6563    -2.8514 H       
  75 H75           -1.8491    15.7576    -5.2151 H       
  76 H76           -2.2547    17.5061    -5.1764 H       
  77 H77            0.2460    16.5576    -5.9520 H       
  78 H78            0.0110    18.1560    -5.1775 H       
  79 H79           -0.6184     3.6922    -5.1536 H       
  80 H80           -2.7834     2.4198    -5.5116 H       
  81 H81           -3.7395     3.9776    -5.2653 H       
  82 H82           -2.5426     5.0247    -7.2414 H       
  83 H83           -1.5864     3.4670    -7.4877 H       
@<TRIPOS>BOND
   1    1    2 ar
   2    1    6 ar
   3    1   19 1
   4    2    3 ar
   5    2   47 1
   6    3    4 ar
   7    3   48 1
   8    4    5 ar
   9    4   49 1
  10    5    6 ar
  11    5   50 1
  12    6    7 1
  13    7    8 1
  14    7   12 1
  15    8    9 1
  16    8   51 1
  17    8   52 1
  18    9   10 1
  19    9   53 1
  20    9   54 1
  21   10   11 1
  22   10   13 1
  23   11   12 1
  24   11   55 1
  25   11   56 1
  26   12   57 1
  27   12   58 1
  28   13   14 ar
  29   13   18 ar
  30   14   15 ar
  31   14   59 1
  32   15   16 ar
  33   15   29 1
  34   16   17 ar
  35   16   28 1
  36   17   18 ar
  37   17   60 1
  38   18   20 1
  39   19   61 1
  40   19   62 1
  41   19   63 1
  42   20   21 am
  43   20   64 1
  44   21   22 1
  45   21   27 2
  46   22   23 2
  47   22   26 1
  48   23   24 1
  49   23   65 1
  50   24   25 1
  51   25   26 2
  52   25   43 1
  53   28   32 2
  54   28   33 am
  55   29   30 1
  56   29   31 1
  57   29   46 1
  58   33   34 1
  59   33   66 1
  60   34   35 1
  61   34   67 1
  62   34   68 1
  63   35   36 1
  64   35   69 1
  65   35   70 1
  66   36   37 1
  67   36   71 1
  68   36   72 1
  69   37   38 1
  70   37   41 am
  71   38   39 1
  72   38   73 1
  73   38   74 1
  74   39   40 1
  75   39   75 1
  76   39   76 1
  77   40   41 1
  78   40   77 1
  79   40   78 1
  80   41   42 2
  81   43   44 1
  82   43   45 1
  83   43   79 1
  84   44   45 1
  85   44   80 1
  86   44   81 1
  87   45   82 1
  88   45   83 1

#	End of record

