#	Name: ASD01830037
#	Creating user name:	WinNT
#	Creation time:	15. 06. 2019 19:36

#	Modifying user name:	WinNT
#	Modification time:	15. 06. 2019 19:36

#	Program:	/corina/corina34_cracker 3.40 0067  02.08.2006

@<TRIPOS>MOLECULE
ASD01830037
  77   78    0    0    0
SMALL
NO_CHARGES


@<TRIPOS>ATOM
   1 Cl1            0.0000     0.0000     0.0000 Cl      
   2 H2             0.0000     1.3700     0.0000 H       
   3 Cl3            5.0000     6.3700     5.0000 Cl      
   4 H4             5.0000     7.7400     5.0000 H       
   5 Cl5           10.0000    12.7400    10.0000 Cl      
   6 H6            10.0000    14.1100    10.0000 H       
   7 C7            17.2385    26.7208    15.9468 C.3     
   8 C8            17.2592    25.1910    15.9384 C.3     
   9 H9            17.7573    24.8320    15.0378 H       
  10 C10           15.8165    24.6461    15.9931 C.3     
  11 C11           15.9453    23.4084    16.9197 C.3     
  12 C12           17.0121    23.8876    17.9354 C.3     
  13 N13           17.9637    24.6923    17.1338 N.3     
  14 C14           18.5117    25.8032    17.9236 C.3     
  15 C15           19.0048    25.2820    19.2488 C.2     
  16 S16           18.0517    25.1483    20.7247 S.3     
  17 C17           19.4493    24.4933    21.5720 C.2     
  18 N18           19.4702    24.1093    22.9059 N.am    
  19 C19           20.6025    23.6194    23.4484 C.2     
  20 O20           21.6055    23.5137    22.7697 O.2     
  21 C21           20.6247    23.2107    24.8682 C.ar    
  22 C22           21.7976    22.7091    25.4312 C.ar    
  23 N23           21.8170    22.3440    26.7000 N.ar    
  24 C24           20.7197    22.4546    27.4393 C.ar    
  25 C25           19.5430    22.9573    26.8741 C.ar    
  26 N26           19.5249    23.3265    25.6125 N.ar    
  27 N27           20.7400    22.0719    28.7692 N.3     
  28 C28           19.7050    21.0653    29.0434 C.3     
  29 C29           19.7077    20.7282    30.5363 C.3     
  30 N30           21.0362    20.2317    30.9213 N.3     
  31 C31           21.0577    19.8255    32.3329 C.3     
  32 C32           20.8575    21.0555    33.2206 C.3     
  33 C33           20.8796    20.6388    34.6687 C.2     
  34 O34           20.7220    21.5580    35.6341 O.3     
  35 O35           21.0391    19.4772    34.9607 O.2     
  36 C36           22.0713    21.2383    30.6471 C.3     
  37 H37           21.8638    22.1396    31.2238 H       
  38 C38           23.4409    20.6830    31.0430 C.3     
  39 C39           22.0685    21.5754    29.1542 C.3     
  40 N40           20.4559    24.4242    20.7574 N.2     
  41 C41           20.2481    24.8330    19.5069 C.2     
  42 C42           21.3084    24.8009    18.4767 C.2     
  43 C43           22.6193    25.0188    18.7021 C.2     
  44 C44           23.4193    24.9347    17.5790 C.2     
  45 Cl45          25.1370    25.1788    17.6376 Cl      
  46 C46           22.7734    24.6512    16.4448 C.2     
  47 S47           21.0551    24.4651    16.7689 S.3     
  48 H48           18.2611    27.0981    15.9391 H       
  49 H49           16.7113    27.0819    15.0638 H       
  50 H50           16.7283    27.0723    16.8436 H       
  51 H51           15.1420    25.3841    16.4274 H       
  52 H52           15.4782    24.3505    15.0000 H       
  53 H53           15.0000    23.1938    17.4182 H       
  54 H54           16.2978    22.5396    16.3638 H       
  55 H55           16.5509    24.5021    18.7086 H       
  56 H56           17.5216    23.0337    18.3819 H       
  57 H57           19.3399    26.2602    17.3820 H       
  58 H58           17.7334    26.5473    18.0927 H       
  59 H59           18.6699    24.1936    23.4474 H       
  60 H60           22.6900    22.6190    24.8295 H       
  61 H61           18.6505    23.0468    27.4756 H       
  62 H62           18.7292    21.4610    28.7618 H       
  63 H63           19.9124    20.1639    28.4667 H       
  64 H64           19.4734    21.6238    31.1118 H       
  65 H65           18.9604    19.9606    30.7372 H       
  66 H66           20.2564    19.1100    32.5173 H       
  67 H67           22.0176    19.3634    32.5634 H       
  68 H68           21.6588    21.7710    33.0362 H       
  69 H69           19.8976    21.5176    32.9901 H       
  70 H70           20.7434    21.2429    36.5480 H       
  71 H71           23.6484    19.7821    30.4655 H       
  72 H72           24.2083    21.4298    30.8395 H       
  73 H73           23.4417    20.4415    32.1059 H       
  74 H74           22.3028    20.6798    28.5788 H       
  75 H75           22.8158    22.3430    28.9533 H       
  76 H76           23.0129    25.2417    19.6828 H       
  77 H77           23.2373    24.5480    15.4750 H       
@<TRIPOS>BOND
   1    1    2 1
   2    3    4 1
   3    5    6 1
   4    7    8 1
   5    7   48 1
   6    7   49 1
   7    7   50 1
   8    8    9 1
   9    8   13 1
  10    8   10 1
  11   10   11 1
  12   10   51 1
  13   10   52 1
  14   11   12 1
  15   11   53 1
  16   11   54 1
  17   12   13 1
  18   12   55 1
  19   12   56 1
  20   13   14 1
  21   14   15 1
  22   14   57 1
  23   14   58 1
  24   15   41 2
  25   15   16 1
  26   16   17 1
  27   17   18 1
  28   17   40 2
  29   18   19 am
  30   18   59 1
  31   19   20 2
  32   19   21 1
  33   21   26 ar
  34   21   22 ar
  35   22   23 ar
  36   22   60 1
  37   23   24 ar
  38   24   25 ar
  39   24   27 1
  40   25   26 ar
  41   25   61 1
  42   27   39 1
  43   27   28 1
  44   28   29 1
  45   28   62 1
  46   28   63 1
  47   29   30 1
  48   29   64 1
  49   29   65 1
  50   30   31 1
  51   30   36 1
  52   31   32 1
  53   31   66 1
  54   31   67 1
  55   32   33 1
  56   32   68 1
  57   32   69 1
  58   33   34 1
  59   33   35 2
  60   34   70 1
  61   36   37 1
  62   36   38 1
  63   36   39 1
  64   38   71 1
  65   38   72 1
  66   38   73 1
  67   39   74 1
  68   39   75 1
  69   40   41 1
  70   41   42 1
  71   42   47 1
  72   42   43 2
  73   43   44 1
  74   43   76 1
  75   44   45 1
  76   44   46 2
  77   46   47 1
  78   46   77 1

#	End of record

