#	Name: ASD01914774
#	Creating user name:	WinNT
#	Creation time:	15. 06. 2019 20:04

#	Modifying user name:	WinNT
#	Modification time:	15. 06. 2019 20:04

#	Program:	/corina/corina34_cracker 3.40 0067  02.08.2006

@<TRIPOS>MOLECULE
ASD01914774
  43   46    0    0    0
SMALL
NO_CHARGES


@<TRIPOS>ATOM
   1 N1            -0.0053     1.4591     0.2361 N.am    
   2 C2             0.0670     0.1100    -0.0044 C.2     
   3 C3            -1.1677    -0.7151    -0.2776 C.3     
   4 C4            -2.3511    -0.0410     0.4254 C.3     
   5 N5            -2.3219     1.4067     0.2405 N.am    
   6 C6            -1.1775     2.1193     0.2651 C.2     
   7 C7             1.2694     1.9015     0.4265 C.2     
   8 C8             2.0735     0.8255     0.3064 C.2     
   9 N9             1.3073    -0.2504     0.0459 N.2     
  10 C10            3.5746     0.8274     0.4400 C.3     
  11 O11           -1.2042     3.3330     0.3133 O.2     
  12 C12           -3.5255     2.0795     0.0299 C.ar    
  13 O13            4.0266     2.1545     0.7165 O.3     
  14 C14            5.3656     2.3315     0.8669 C.ar    
  15 C15            5.8736     3.5939     1.1369 C.ar    
  16 C16            6.2262     1.2490     0.7566 C.ar    
  17 C17            7.5869     1.4315     0.9104 C.ar    
  18 C18            8.0912     2.6915     1.1746 C.ar    
  19 C19            7.2350     3.7711     1.2899 C.ar    
  20 N20           -3.5097     3.3405    -0.3709 N.ar    
  21 C21           -4.6244     4.0141    -0.5824 C.ar    
  22 C22           -5.8582     3.4201    -0.3903 C.ar    
  23 C23           -5.9170     2.0965     0.0305 C.ar    
  24 C24           -4.7298     1.4168     0.2377 C.ar    
  25 F25           -6.9939     4.1184    -0.6087 F       
  26 C26           -4.5520     5.4486    -1.0385 C.3     
  27 H27           -1.3523    -0.7580    -1.3510 H       
  28 H28           -1.0316    -1.7231     0.1143 H       
  29 H29           -3.2813    -0.4346     0.0155 H       
  30 H30           -2.3085    -0.2657     1.4911 H       
  31 H31            1.5761     2.9163     0.6331 H       
  32 H32            3.8675     0.1665     1.2558 H       
  33 H33            4.0226     0.4773    -0.4900 H       
  34 H34            5.2053     4.4375     1.2270 H       
  35 H35            5.8328     0.2645     0.5509 H       
  36 H36            8.2573     0.5891     0.8245 H       
  37 H37            9.1552     2.8320     1.2949 H       
  38 H38            7.6314     4.7544     1.4960 H       
  39 H39           -6.8676     1.6087     0.1884 H       
  40 H40           -4.7386     0.3874     0.5643 H       
  41 H41           -4.5368     5.4832    -2.1278 H       
  42 H42           -5.4223     5.9914    -0.6699 H       
  43 H43           -3.6444     5.9087    -0.6477 H       
@<TRIPOS>BOND
   1    1    2 1
   2    1    7 1
   3    1    6 am
   4    2    3 1
   5    2    9 2
   6    3    4 1
   7    3   27 1
   8    3   28 1
   9    4    5 1
  10    4   29 1
  11    4   30 1
  12    5    6 am
  13    5   12 1
  14    6   11 2
  15    7    8 2
  16    7   31 1
  17    8    9 1
  18    8   10 1
  19   10   13 1
  20   10   32 1
  21   10   33 1
  22   12   20 ar
  23   12   24 ar
  24   13   14 1
  25   14   15 ar
  26   14   16 ar
  27   15   19 ar
  28   15   34 1
  29   16   17 ar
  30   16   35 1
  31   17   18 ar
  32   17   36 1
  33   18   19 ar
  34   18   37 1
  35   19   38 1
  36   20   21 ar
  37   21   22 ar
  38   21   26 1
  39   22   23 ar
  40   22   25 1
  41   23   24 ar
  42   23   39 1
  43   24   40 1
  44   26   41 1
  45   26   42 1
  46   26   43 1

#	End of record

