#	Name: ASD00390004
#	Creating user name:	WinNT
#	Creation time:	15. 06. 2019 18:35

#	Modifying user name:	WinNT
#	Modification time:	15. 06. 2019 18:35

#	Program:	/corina/corina34_cracker 3.40 0067  02.08.2006

@<TRIPOS>MOLECULE
ASD00390004
  38   39    0    0    0
SMALL
NO_CHARGES


@<TRIPOS>ATOM
   1 C1            -0.2654     1.3041     0.7091 C.ar    
   2 C2            -0.3091    -0.0550     0.3210 C.ar    
   3 C3             0.8113    -0.6881    -0.2659 C.ar    
   4 C4             1.9585    -0.0059    -0.4717 C.ar    
   5 C5             2.0343     1.4072    -0.0795 C.ar    
   6 C6             0.8548     2.0367     0.5273 C.ar    
   7 C7            -1.4853    -0.7890     0.5222 C.2     
   8 C8            -2.6777    -0.1306     0.7802 C.2     
   9 C9            -3.8539    -0.8647     0.9814 C.ar    
  10 C10           -5.0219    -0.1966     1.4174 C.ar    
  11 C11           -6.1702    -0.8780     1.6194 C.ar    
  12 C12           -6.1974    -2.3268     1.3814 C.ar    
  13 C13           -4.9691    -2.9920     0.9293 C.ar    
  14 C14           -3.8514    -2.2578     0.7391 C.ar    
  15 N15           -7.3036    -3.0172     1.5707 N.2     
  16 S16            0.7094    -2.3841    -0.7327 S.o2    
  17 N17            3.1407     2.0973    -0.2680 N.2     
  18 O18            1.0142    -3.1397     0.4315 O.2     
  19 O19           -0.5043    -2.5286    -1.4573 O.2     
  20 O20            1.8351    -2.6473    -1.7227 O.3     
  21 S21           -4.9781     1.5420     1.7004 S.o2    
  22 O22           -4.4851     1.7212     3.0211 O.2     
  23 O23           -4.3638     2.1194     0.5565 O.2     
  24 O24           -6.4185     2.0335     1.7089 O.3     
  25 C25           -7.3138    -4.2500     1.3647 C.1     
  26 C26            3.1927     3.2996     0.0701 C.1     
  27 S27           -7.3266    -5.7823     1.1087 S.2     
  28 S28            3.2573     4.7939     0.4903 S.2     
  29 H29           -1.1378     1.7622     1.1511 H       
  30 H30            2.8112    -0.4944    -0.9195 H       
  31 H31            0.8825     3.0745     0.8249 H       
  32 H32           -1.4631    -1.8678     0.4764 H       
  33 H33           -2.6999     0.9482     0.8260 H       
  34 H34           -7.0591    -0.3630     1.9526 H       
  35 H35           -4.9604    -4.0565     0.7469 H       
  36 H36           -2.9446    -2.7410     0.4065 H       
  37 H37            1.8700    -3.5582    -2.0455 H       
  38 H38           -6.5086     2.9847     1.8581 H       
@<TRIPOS>BOND
   1    1    2 ar
   2    1    6 ar
   3    1   29 1
   4    2    3 ar
   5    2    7 1
   6    3    4 ar
   7    3   16 1
   8    4    5 ar
   9    4   30 1
  10    5    6 ar
  11    5   17 1
  12    6   31 1
  13    7    8 2
  14    7   32 1
  15    8    9 1
  16    8   33 1
  17    9   10 ar
  18    9   14 ar
  19   10   11 ar
  20   10   21 1
  21   11   12 ar
  22   11   34 1
  23   12   13 ar
  24   12   15 1
  25   13   14 ar
  26   13   35 1
  27   14   36 1
  28   15   25 2
  29   16   18 2
  30   16   19 2
  31   16   20 1
  32   17   26 2
  33   20   37 1
  34   21   22 2
  35   21   23 2
  36   21   24 1
  37   24   38 1
  38   25   27 2
  39   26   28 2

#	End of record

