#	Name: ASD05313061
#	Creating user name:	WinNT
#	Creation time:	15. 06. 2019 20:58

#	Modifying user name:	WinNT
#	Modification time:	15. 06. 2019 20:58

#	Program:	/corina/corina34_cracker 3.40 0067  02.08.2006

@<TRIPOS>MOLECULE
ASD05313061
  37   40    0    0    0
SMALL
NO_CHARGES


@<TRIPOS>ATOM
   1 C1            -0.0720     0.8170     1.0251 C.2     
   2 C2             0.1140    -0.6192     0.5973 C.3     
   3 N3             0.9289     1.7296     1.0514 N.pl3   
   4 N4             1.4570    -0.7186    -0.0048 N.am    
   5 C5             2.5713    -0.0366     0.6710 C.3     
   6 C6             2.3157     1.4753     0.6649 C.3     
   7 N7            -0.9052     2.6397     1.7102 N.2     
   8 N8            -1.1580     1.4076     1.4283 N.2     
   9 C9             0.3705     2.8894     1.4965 C.2     
  10 C10            1.0635     4.1799     1.7030 C.ar    
  11 N11            0.3725     5.2232     2.1449 N.ar    
  12 C12            0.9617     6.3900     2.3398 C.ar    
  13 C13            2.3180     6.5158     2.0769 C.ar    
  14 C14            3.0105     5.4055     1.6161 C.ar    
  15 N15            2.3630     4.2659     1.4473 N.ar    
  16 C16            1.6574    -1.4149    -1.1412 C.2     
  17 O17            2.7490    -1.4043    -1.6760 O.2     
  18 C18            0.5502    -2.1911    -1.7371 C.ar    
  19 C19            0.3188    -2.1399    -3.1140 C.ar    
  20 C20           -0.7190    -2.8689    -3.6639 C.ar    
  21 C21           -1.5268    -3.6470    -2.8529 C.ar    
  22 C22           -1.3019    -3.7006    -1.4887 C.ar    
  23 C23           -0.2657    -2.9834    -0.9277 C.ar    
  24 Cl24          -1.0099    -2.8079    -5.3742 Cl      
  25 Cl25           1.3312    -1.1631    -4.1312 Cl      
  26 H26            0.0450    -1.2773     1.4635 H       
  27 H27           -0.6441    -0.8895    -0.1378 H       
  28 H28            2.6439    -0.3893     1.6998 H       
  29 H29            3.5018    -0.2507     0.1454 H       
  30 H30            2.4933     1.8704    -0.3353 H       
  31 H31            2.9863     1.9610     1.3738 H       
  32 H32            0.3940     7.2355     2.6992 H       
  33 H33            2.8239     7.4580     2.2274 H       
  34 H34            4.0671     5.4706     1.4022 H       
  35 H35           -2.3367    -4.2146    -3.2868 H       
  36 H36           -1.9365    -4.3096    -0.8619 H       
  37 H37           -0.0892    -3.0307     0.1367 H       
@<TRIPOS>BOND
   1    1    2 1
   2    1    3 1
   3    1    8 2
   4    2    4 1
   5    2   26 1
   6    2   27 1
   7    3    6 1
   8    3    9 1
   9    4    5 1
  10    4   16 am
  11    5    6 1
  12    5   28 1
  13    5   29 1
  14    6   30 1
  15    6   31 1
  16    7    8 1
  17    7    9 2
  18    9   10 1
  19   10   11 ar
  20   10   15 ar
  21   11   12 ar
  22   12   13 ar
  23   12   32 1
  24   13   14 ar
  25   13   33 1
  26   14   15 ar
  27   14   34 1
  28   16   17 2
  29   16   18 1
  30   18   19 ar
  31   18   23 ar
  32   19   20 ar
  33   19   25 1
  34   20   21 ar
  35   20   24 1
  36   21   22 ar
  37   21   35 1
  38   22   23 ar
  39   22   36 1
  40   23   37 1

#	End of record

