#	Name: ASD03730868
#	Creating user name:	WinNT
#	Creation time:	15. 06. 2019 20:44

#	Modifying user name:	WinNT
#	Modification time:	15. 06. 2019 20:44

#	Program:	/corina/corina34_cracker 3.40 0067  02.08.2006

@<TRIPOS>MOLECULE
ASD03730868
  66   73    0    0    0
SMALL
NO_CHARGES


@<TRIPOS>ATOM
   1 C1             1.3335    -1.1173    -2.4962 C.2     
   2 C2             0.4221    -1.0969    -1.3326 C.ar    
   3 C3             0.6006    -0.1538    -0.3188 C.ar    
   4 C4            -0.2537    -0.1399     0.7641 C.ar    
   5 C5            -1.2856    -1.0583     0.8471 C.ar    
   6 C6            -1.4680    -1.9954    -0.1541 C.ar    
   7 C7            -0.6241    -2.0165    -1.2455 C.ar    
   8 O8             2.2165    -0.2872    -2.5914 O.2     
   9 N9             1.1890    -2.0597    -3.4489 N.am    
  10 C10            1.7244     0.8463    -0.4070 C.3     
  11 O11           -0.1070    -0.4428     6.4249 O.3     
  12 C12           -0.1961    -0.0770     7.8146 C.3     
  13 O13            1.0406     0.6162     8.0660 O.3     
  14 C14            1.4159     1.1426     6.8632 C.ar    
  15 C15            0.7106     0.4903     5.8544 C.ar    
  16 C16            2.3163     2.1426     6.5423 C.ar    
  17 C17            2.5259     2.5031     5.2146 C.ar    
  18 C18            1.8217     1.8386     4.2151 C.ar    
  19 C19            0.9188     0.8454     4.5323 C.ar    
  20 O20            3.3438     3.4602     4.6898 O.3     
  21 C21            2.2798     2.4239     2.9061 C.3     
  22 C22            3.5521     3.1917     3.2899 C.3     
  23 N23            1.7636     1.6463     0.8197 N.am    
  24 C24            2.5533     1.3665     1.8756 C.2     
  25 C25            1.2484     3.3222     2.2903 C.ar    
  26 C26            0.5956     4.4559     2.7200 C.ar    
  27 C27           -0.3284     5.0769     1.8986 C.ar    
  28 C28           -0.5951     4.5559     0.6455 C.ar    
  29 C29            0.0554     3.4199     0.2109 C.ar    
  30 C30            0.9874     2.7884     1.0309 C.ar    
  31 O31            3.3323     0.4422     1.9740 O.2     
  32 C32            3.9844    -1.8571    -8.3726 C.3     
  33 C33            2.8064    -2.2138    -9.3038 C.3     
  34 C34            1.8589    -2.9836    -8.3596 C.3     
  35 C35            2.1679    -2.4585    -6.9738 C.ar    
  36 C36            1.4377    -2.5414    -5.8013 C.ar    
  37 C37            1.9282    -1.9760    -4.6330 C.ar    
  38 C38            3.1559    -1.3262    -4.6436 C.ar    
  39 C39            3.8807    -1.2463    -5.8148 C.ar    
  40 C40            3.3897    -1.8109    -6.9811 C.ar    
  41 H41           -0.1167     0.5890     1.5491 H       
  42 H42           -1.9512    -1.0435     1.6974 H       
  43 H43           -2.2753    -2.7093    -0.0833 H       
  44 H44           -0.7703    -2.7458    -2.0286 H       
  45 H45            0.5722    -2.7959    -3.3132 H       
  46 H46            2.6710     0.3195    -0.5276 H       
  47 H47            1.5615     1.5013    -1.2629 H       
  48 H48           -1.0465     0.5837     7.9830 H       
  49 H49           -0.2708    -0.9662     8.4407 H       
  50 H50            2.8601     2.6469     7.3273 H       
  51 H51            0.3729     0.3430     3.7473 H       
  52 H52            3.6289     4.1206     2.7248 H       
  53 H53            4.4371     2.5729     3.1419 H       
  54 H54            0.8053     4.8609     3.6990 H       
  55 H55           -0.8399     5.9666     2.2349 H       
  56 H56           -1.3165     5.0405     0.0043 H       
  57 H57           -0.1586     3.0187    -0.7687 H       
  58 H58            4.7565    -2.6244    -8.4286 H       
  59 H59            4.3968    -0.8842    -8.6401 H       
  60 H60            2.3262    -1.3121    -9.6839 H       
  61 H61            3.1393    -2.8513   -10.1228 H       
  62 H62            0.8197    -2.7799    -8.6182 H       
  63 H63            2.0598    -4.0536    -8.4121 H       
  64 H64            0.4832    -3.0468    -5.7957 H       
  65 H65            3.5420    -0.8841    -3.7371 H       
  66 H66            4.8352    -0.7409    -5.8227 H       
@<TRIPOS>BOND
   1    1    2 1
   2    1    8 2
   3    1    9 am
   4    2    3 ar
   5    2    7 ar
   6    3    4 ar
   7    3   10 1
   8    4    5 ar
   9    4   41 1
  10    5    6 ar
  11    5   42 1
  12    6    7 ar
  13    6   43 1
  14    7   44 1
  15    9   37 1
  16    9   45 1
  17   10   23 1
  18   10   46 1
  19   10   47 1
  20   11   12 1
  21   11   15 1
  22   12   13 1
  23   12   48 1
  24   12   49 1
  25   13   14 1
  26   14   15 ar
  27   14   16 ar
  28   15   19 ar
  29   16   17 ar
  30   16   50 1
  31   17   18 ar
  32   17   20 1
  33   18   19 ar
  34   18   21 1
  35   19   51 1
  36   20   22 1
  37   21   22 1
  38   21   24 1
  39   21   25 1
  40   22   52 1
  41   22   53 1
  42   23   24 am
  43   23   30 1
  44   24   31 2
  45   25   26 ar
  46   25   30 ar
  47   26   27 ar
  48   26   54 1
  49   27   28 ar
  50   27   55 1
  51   28   29 ar
  52   28   56 1
  53   29   30 ar
  54   29   57 1
  55   32   33 1
  56   32   40 1
  57   32   58 1
  58   32   59 1
  59   33   34 1
  60   33   60 1
  61   33   61 1
  62   34   35 1
  63   34   62 1
  64   34   63 1
  65   35   36 ar
  66   35   40 ar
  67   36   37 ar
  68   36   64 1
  69   37   38 ar
  70   38   39 ar
  71   38   65 1
  72   39   40 ar
  73   39   66 1

#	End of record

