#	Name: ASD04590788
#	Creating user name:	WinNT
#	Creation time:	15. 06. 2019 20:51

#	Modifying user name:	WinNT
#	Modification time:	15. 06. 2019 20:51

#	Program:	/corina/corina34_cracker 3.40 0067  02.08.2006

@<TRIPOS>MOLECULE
ASD04590788
  63   69    0    0    0
SMALL
NO_CHARGES


@<TRIPOS>ATOM
   1 C1            -0.0156     1.3196     0.0021 C.ar    
   2 N2             0.0030    -0.0035     0.0021 N.ar    
   3 C3             1.1567    -0.6643    -0.0189 C.ar    
   4 C4             2.3551     0.0773    -0.0413 C.ar    
   5 C5             2.2853     1.4668    -0.0402 C.ar    
   6 N6             1.0955     2.0445    -0.0187 N.ar    
   7 N7             1.4730    -2.0002    -0.0239 N.pl3   
   8 C8             3.4497    -0.9015    -0.0607 C.ar    
   9 C9             2.8463    -2.1721    -0.0489 C.ar    
  10 C10            3.6647    -3.2936    -0.0628 C.ar    
  11 C11            4.8411    -0.8199    -0.0858 C.ar    
  12 C12            5.5738    -1.9883    -0.0981 C.ar    
  13 N13            4.9760    -3.1663    -0.0864 N.ar    
  14 N14           -1.2380     1.9706     0.0185 N.pl3   
  15 C15           -1.2868     3.3604     0.1316 C.ar    
  16 C16           -2.5090     4.0273     0.0364 C.ar    
  17 C17           -2.5070     5.4058     0.1554 C.ar    
  18 C18           -1.2827     6.0431     0.3631 C.ar    
  19 N19           -0.1726     5.3273     0.4401 N.ar    
  20 N20           -0.1754     4.0482     0.3348 N.ar    
  21 C21            0.0216    10.1206    -0.5382 C.3     
  22 C22            1.0707    11.1239    -0.0288 C.3     
  23 C23            1.5728    10.0079     0.9037 C.3     
  24 C24            0.1630     9.4104     0.8142 C.3     
  25 N25           -0.7549     9.9161     1.8399 N.3     
  26 C26           -2.1206     9.4243     1.6008 C.3     
  27 C27           -2.1099     7.8944     1.5693 C.3     
  28 N28           -1.2296     7.4295     0.4887 N.3     
  29 C29            0.1516     7.8867     0.7059 C.3     
  30 C30            0.4947    -3.0906    -0.0054 C.3     
  31 C31           -0.3727    -2.9990     1.2622 C.3     
  32 C32           -1.8291    -2.8160     0.7874 C.3     
  33 C33           -1.8383    -3.4047    -0.6452 C.3     
  34 C34           -0.4648    -2.9601    -1.2063 C.3     
  35 H35            3.1859     2.0628    -0.0570 H       
  36 H36            3.2227    -4.2789    -0.0537 H       
  37 H37            5.3359     0.1400    -0.0958 H       
  38 H38            6.6525    -1.9394    -0.1179 H       
  39 H39           -2.0602     1.4603    -0.0486 H       
  40 H40           -3.4283     3.4840    -0.1255 H       
  41 H41           -3.4247     5.9715     0.0892 H       
  42 H42           -0.9622    10.5612    -0.6996 H       
  43 H43            0.3629     9.5228    -1.3834 H       
  44 H44            1.7965    11.4190    -0.7866 H       
  45 H45            0.6406    11.9743     0.5004 H       
  46 H46            2.3430     9.3791     0.4572 H       
  47 H47            1.8364    10.3581     1.9017 H       
  48 H48           -0.4373     9.6661     2.7644 H       
  49 H49           -2.7760     9.7670     2.4015 H       
  50 H50           -2.4824     9.8053     0.6458 H       
  51 H51           -1.7450     7.5143     2.5235 H       
  52 H52           -3.1217     7.5279     1.3961 H       
  53 H53            0.7744     7.5764    -0.1331 H       
  54 H54            0.5383     7.4530     1.6282 H       
  55 H55            1.0070    -4.0521    -0.0386 H       
  56 H56           -0.2821    -3.9164     1.8438 H       
  57 H57           -0.0658    -2.1433     1.8637 H       
  58 H58           -2.5126    -3.3691     1.4316 H       
  59 H59           -2.0937    -1.7588     0.7672 H       
  60 H60           -1.9098    -4.4920    -0.6156 H       
  61 H61           -2.6518    -2.9789    -1.2326 H       
  62 H62           -0.5092    -1.9262    -1.5486 H       
  63 H63           -0.1528    -3.6183    -2.0172 H       
@<TRIPOS>BOND
   1    1    2 ar
   2    1    6 ar
   3    1   14 1
   4    2    3 ar
   5    3    4 ar
   6    3    7 1
   7    4    5 ar
   8    4    8 1
   9    5    6 ar
  10    5   35 1
  11    7    9 1
  12    7   30 1
  13    8    9 ar
  14    8   11 ar
  15    9   10 ar
  16   10   13 ar
  17   10   36 1
  18   11   12 ar
  19   11   37 1
  20   12   13 ar
  21   12   38 1
  22   14   15 1
  23   14   39 1
  24   15   16 ar
  25   15   20 ar
  26   16   17 ar
  27   16   40 1
  28   17   18 ar
  29   17   41 1
  30   18   19 ar
  31   18   28 1
  32   19   20 ar
  33   21   22 1
  34   21   24 1
  35   21   42 1
  36   21   43 1
  37   22   23 1
  38   22   44 1
  39   22   45 1
  40   23   24 1
  41   23   46 1
  42   23   47 1
  43   24   25 1
  44   24   29 1
  45   25   26 1
  46   25   48 1
  47   26   27 1
  48   26   49 1
  49   26   50 1
  50   27   28 1
  51   27   51 1
  52   27   52 1
  53   28   29 1
  54   29   53 1
  55   29   54 1
  56   30   31 1
  57   30   34 1
  58   30   55 1
  59   31   32 1
  60   31   56 1
  61   31   57 1
  62   32   33 1
  63   32   58 1
  64   32   59 1
  65   33   34 1
  66   33   60 1
  67   33   61 1
  68   34   62 1
  69   34   63 1

#	End of record

