#	Name: ASD01881689
#	Creating user name:	WinNT
#	Creation time:	15. 06. 2019 19:43

#	Modifying user name:	WinNT
#	Modification time:	15. 06. 2019 19:43

#	Program:	/corina/corina34_cracker 3.40 0067  02.08.2006

@<TRIPOS>MOLECULE
ASD01881689
  56   59    0    0    0
SMALL
NO_CHARGES


@<TRIPOS>ATOM
   1 N1            -0.0129     1.4747    -0.0144 N.am    
   2 C2             0.0023     0.0055    -0.0140 C.3     
   3 C3             0.8629    -0.4790    -1.1851 C.3     
   4 C4             2.2488     0.1639    -1.0947 C.3     
   5 C5             2.1144     1.6854    -1.1910 C.3     
   6 C6             1.2680     2.1944    -0.0200 C.3     
   7 C7            -1.1796     2.1493    -0.0152 C.2     
   8 O8            -2.2324     1.5425    -0.0156 O.2     
   9 O9            -1.1788     3.4957    -0.0155 O.3     
  10 O10            3.0647    -0.3108    -2.1675 O.3     
  11 O11            0.9920    -1.9009    -1.1259 O.3     
  12 N12           -2.8682    -5.0868    -3.3514 N.pl3   
  13 N13           -2.2034    -6.3041    -3.1423 N.2     
  14 N14           -1.0766    -6.0824    -2.5627 N.2     
  15 C15           -0.9107    -4.7617    -2.3504 C.ar    
  16 C16           -2.0481    -4.1027    -2.8484 C.ar    
  17 C17            0.1166    -4.0075    -1.7668 C.ar    
  18 C18           -0.0032    -2.6352    -1.6912 C.ar    
  19 C19           -1.1362    -1.9965    -2.1894 C.ar    
  20 C20           -2.1462    -2.7187    -2.7598 C.ar    
  21 C21           -4.1753    -4.8993    -3.9859 C.3     
  22 C22           -5.2728    -4.9636    -2.9218 C.3     
  23 C23           -6.7072    -4.6729    -3.3678 C.3     
  24 C24           -6.2885    -6.1034    -3.0225 C.3     
  25 Br25           1.6584    -4.8662    -1.0875 Br      
  26 C26           -2.4721     4.1557    -0.0163 C.3     
  27 C27           -3.2549     3.7454     1.2326 C.3     
  28 C28           -2.2706     5.6724    -0.0166 C.3     
  29 C29           -3.2535     3.7449    -1.2659 C.3     
  30 H30            0.4248    -0.3553     0.9237 H       
  31 H31           -1.0145    -0.3705    -0.1277 H       
  32 H32            0.3907    -0.1949    -2.1255 H       
  33 H33            2.7103    -0.1004    -0.1433 H       
  34 H34            3.1037     2.1413    -1.1501 H       
  35 H35            1.6304     1.9491    -2.1314 H       
  36 H36            1.0864     3.2627    -0.1376 H       
  37 H37            1.7937     2.0121     0.9173 H       
  38 H38            3.9595     0.0558    -2.1731 H       
  39 H39           -1.2174    -0.9215    -2.1236 H       
  40 H40           -3.0209    -2.2140    -3.1429 H       
  41 H41           -4.2038    -3.9276    -4.4790 H       
  42 H42           -4.3375    -5.6857    -4.7231 H       
  43 H43           -4.9799    -4.6367    -1.9241 H       
  44 H44           -7.3581    -4.1551    -2.6634 H       
  45 H45           -6.8690    -4.4359    -4.4193 H       
  46 H46           -6.1748    -6.8075    -3.8468 H       
  47 H47           -6.6639    -6.5267    -2.0908 H       
  48 H48           -2.6982     4.0382     2.1228 H       
  49 H49           -4.2257     4.2409     1.2319 H       
  50 H50           -3.3984     2.6649     1.2327 H       
  51 H51           -1.7129     5.9647    -0.9063 H       
  52 H52           -3.2415     6.1679    -0.0172 H       
  53 H53           -1.7139     5.9651     0.8736 H       
  54 H54           -3.3970     2.6644    -1.2658 H       
  55 H55           -4.2244     4.2404    -1.2666 H       
  56 H56           -2.6958     4.0372    -2.1557 H       
@<TRIPOS>BOND
   1    1    2 1
   2    1    6 1
   3    1    7 am
   4    2    3 1
   5    2   30 1
   6    2   31 1
   7    3    4 1
   8    3   11 1
   9    3   32 1
  10    4    5 1
  11    4   10 1
  12    4   33 1
  13    5    6 1
  14    5   34 1
  15    5   35 1
  16    6   36 1
  17    6   37 1
  18    7    8 2
  19    7    9 1
  20    9   26 1
  21   10   38 1
  22   11   18 1
  23   12   13 1
  24   12   16 1
  25   12   21 1
  26   13   14 2
  27   14   15 1
  28   15   16 ar
  29   15   17 ar
  30   16   20 ar
  31   17   18 ar
  32   17   25 1
  33   18   19 ar
  34   19   20 ar
  35   19   39 1
  36   20   40 1
  37   21   22 1
  38   21   41 1
  39   21   42 1
  40   22   23 1
  41   22   24 1
  42   22   43 1
  43   23   24 1
  44   23   44 1
  45   23   45 1
  46   24   46 1
  47   24   47 1
  48   26   27 1
  49   26   29 1
  50   26   28 1
  51   27   48 1
  52   27   49 1
  53   27   50 1
  54   28   51 1
  55   28   52 1
  56   28   53 1
  57   29   54 1
  58   29   55 1
  59   29   56 1

#	End of record

