#	Name: ASD05550002
#	Creating user name:	WinNT
#	Creation time:	15. 06. 2019 21:01

#	Modifying user name:	WinNT
#	Modification time:	15. 06. 2019 21:01

#	Program:	/corina/corina34_cracker 3.40 0067  02.08.2006

@<TRIPOS>MOLECULE
ASD05550002
  68   74    0    0    0
SMALL
NO_CHARGES


@<TRIPOS>ATOM
   1 P1            -0.0198     1.6057     0.0109 P.3     
   2 P2             3.3727     0.0446     3.6660 P.3     
   3 O3             4.2047     4.0531     0.8866 O.3     
   4 O4             0.0647    -3.0731     1.6439 O.3     
   5 O5             0.0021    -0.0041     0.0020 O.3     
   6 O6             4.1489     1.1061     2.7373 O.3     
   7 O7             2.6179    -1.0310     2.7355 O.3     
   8 O8             1.4909     2.1627    -0.0006 O.3     
   9 O9            -1.9724    -1.4365    -0.6779 O.3     
  10 O10            6.0512     2.6045     3.4781 O.3     
  11 O11           -0.7983     2.1391    -1.2935 O.3     
  12 O12            4.4305    -0.7140     4.6134 O.3     
  13 O13           -0.7124     2.0831     1.2286 O.2     
  14 O14            2.3806     0.7547     4.5037 O.2     
  15 N15            5.4352     5.6199     2.1677 N.pl3   
  16 N16           -2.1472    -3.9164     1.5617 N.pl3   
  17 N17           -3.2327    -4.9029     3.1779 N.2     
  18 N18            4.9547     7.7271     2.4721 N.2     
  19 N19           -3.6706    -4.6882    -0.2570 N.ar    
  20 N20            7.8065     5.8031     2.9209 N.ar    
  21 N21           -5.4347    -6.0029     0.4517 N.ar    
  22 N22            8.4544     7.9251     3.5692 N.ar    
  23 N23           -5.7716    -6.5741     2.7151 N.pl3   
  24 N24            6.9927     9.7755     3.5225 N.pl3   
  25 C25           -0.4413    -0.7949     1.1066 C.3     
  26 C26            3.7667     2.4795     2.6380 C.3     
  27 C27            0.6583    -1.7784     1.5341 C.3     
  28 C28            3.4879     2.8513     1.1740 C.3     
  29 C29           -1.6289    -1.6798     0.6877 C.3     
  30 C30            4.9305     3.3904     3.0676 C.3     
  31 C31            5.2808     4.2066     1.8141 C.3     
  32 C32           -1.1321    -3.1227     0.8646 C.3     
  33 C33            1.2346    -1.3558     2.8871 C.3     
  34 C34            1.9885     3.0816     0.9741 C.3     
  35 C35           -3.2123    -4.5600     0.9841 C.ar    
  36 C36            6.5759     6.2190     2.6389 C.ar    
  37 C37           -2.2033    -4.1559     2.9025 C.2     
  38 C38            4.4734     6.5822     2.0831 C.2     
  39 C39           -3.9006    -5.1894     2.0347 C.ar    
  40 C40            6.2521     7.5726     2.8299 C.ar    
  41 C41           -5.0525    -5.9317     1.7224 C.ar    
  42 C42            7.2527     8.4322     3.3149 C.ar    
  43 C43           -4.7540    -5.3941    -0.5024 C.ar    
  44 C44            8.7119     6.6446     3.3730 C.ar    
  45 H45           -2.7152    -1.9670    -0.9972 H       
  46 H46            6.8152     3.1260     3.7599 H       
  47 H47           -0.8502     3.1028    -1.3539 H       
  48 H48            4.0319    -1.3700     5.2016 H       
  49 H49           -6.5648    -7.0837     2.4869 H       
  50 H50           -5.4824    -6.5147     3.6391 H       
  51 H51            7.6917    10.3587     3.8573 H       
  52 H52            6.1114    10.1338     3.3331 H       
  53 H53           -0.7222    -0.1538     1.9421 H       
  54 H54            2.8873     2.6726     3.2522 H       
  55 H55            1.4499    -1.7965     0.7850 H       
  56 H56            3.8293     2.0507     0.5177 H       
  57 H57           -2.4872    -1.4924     1.3329 H       
  58 H58            4.6161     4.0516     3.8751 H       
  59 H59            6.2050     3.8314     1.3744 H       
  60 H60           -0.9214    -3.5637    -0.1097 H       
  61 H61            1.1296    -2.1749     3.5985 H       
  62 H62            0.6948    -0.4834     3.2553 H       
  63 H63            1.8203     4.1022     0.6304 H       
  64 H64            1.4679     2.9260     1.9191 H       
  65 H65           -1.4974    -3.7812     3.6290 H       
  66 H66            3.4614     6.4187     1.7431 H       
  67 H67           -5.0999    -5.4779    -1.5221 H       
  68 H68            9.7023     6.2741     3.5927 H       
@<TRIPOS>BOND
   1    1    5 1
   2    1    8 1
   3    1   11 1
   4    1   13 2
   5    2    6 1
   6    2    7 1
   7    2   12 1
   8    2   14 2
   9    3   31 1
  10    3   28 1
  11    4   32 1
  12    4   27 1
  13    5   25 1
  14    6   26 1
  15    7   33 1
  16    8   34 1
  17    9   29 1
  18    9   45 1
  19   10   30 1
  20   10   46 1
  21   11   47 1
  22   12   48 1
  23   15   36 1
  24   15   38 1
  25   15   31 1
  26   16   35 1
  27   16   37 1
  28   16   32 1
  29   17   37 2
  30   17   39 1
  31   18   38 2
  32   18   40 1
  33   19   35 ar
  34   19   43 ar
  35   20   36 ar
  36   20   44 ar
  37   21   41 ar
  38   21   43 ar
  39   22   42 ar
  40   22   44 ar
  41   23   41 1
  42   23   49 1
  43   23   50 1
  44   24   42 1
  45   24   51 1
  46   24   52 1
  47   25   27 1
  48   25   29 1
  49   25   53 1
  50   26   28 1
  51   26   30 1
  52   26   54 1
  53   27   33 1
  54   27   55 1
  55   28   34 1
  56   28   56 1
  57   29   32 1
  58   29   57 1
  59   30   31 1
  60   30   58 1
  61   31   59 1
  62   32   60 1
  63   33   61 1
  64   33   62 1
  65   34   63 1
  66   34   64 1
  67   35   39 ar
  68   36   40 ar
  69   37   65 1
  70   38   66 1
  71   39   41 ar
  72   40   42 ar
  73   43   67 1
  74   44   68 1

#	End of record

