#	Name: ASD02039158
#	Creating user name:	WinNT
#	Creation time:	15. 06. 2019 20:17

#	Modifying user name:	WinNT
#	Modification time:	15. 06. 2019 20:17

#	Program:	/corina/corina34_cracker 3.40 0067  02.08.2006

@<TRIPOS>MOLECULE
ASD02039158
  43   46    0    0    0
SMALL
NO_CHARGES


@<TRIPOS>ATOM
   1 N1            -0.0439     1.3720    -0.1167 N.2     
   2 C2            -0.0053     0.0669    -0.0724 C.2     
   3 N3             1.2921    -0.2978    -0.1554 N.2     
   4 C4             1.9675     0.8215    -0.2460 C.2     
   5 O5             1.0790     1.8196    -0.2161 O.3     
   6 C6             3.4639     0.9577    -0.3609 C.3     
   7 O7             3.7786     1.9142    -1.3748 O.3     
   8 C8             4.9935     1.8006    -1.9750 C.ar    
   9 N9            -1.0957    -0.7865     0.0400 N.pl3   
  10 C10           -2.3850    -0.2599     0.1839 C.ar    
  11 C11           -2.7018     0.9668    -0.3849 C.ar    
  12 C12           -3.9737     1.4861    -0.2428 C.ar    
  13 C13           -4.9351     0.7828     0.4674 C.ar    
  14 C14           -4.6199    -0.4433     1.0365 C.ar    
  15 C15           -3.3490    -0.9664     0.8905 C.ar    
  16 C16            5.3184     2.6324    -3.0449 C.ar    
  17 C17            6.5327     2.5350    -3.6618 C.ar    
  18 C18            7.4639     1.5967    -3.2248 C.ar    
  19 C19            7.1455     0.7515    -2.1446 C.ar    
  20 C20            5.8994     0.8666    -1.5179 C.ar    
  21 N21            8.7332     1.2632    -3.6254 N.pl3   
  22 N22            9.2103     0.2274    -2.8157 N.2     
  23 C23            8.3100    -0.1025    -1.9342 C.2     
  24 O24           -6.1874     1.2950     0.6068 O.3     
  25 Cl25          -5.8237    -1.3226     1.9259 Cl      
  26 C26           -6.4420     2.5614    -0.0043 C.3     
  27 F27           -5.5806     3.5219     0.5367 F       
  28 F28           -6.2264     2.4656    -1.3833 F       
  29 C29            4.0377     1.4261     0.9779 C.3     
  30 H30            3.8974    -0.0070    -0.6244 H       
  31 H31           -0.9638    -1.7473     0.0188 H       
  32 H32           -1.9535     1.5149    -0.9381 H       
  33 H33           -4.2195     2.4404    -0.6847 H       
  34 H34           -3.1035    -1.9206     1.3329 H       
  35 H35            4.6013     3.3624    -3.3903 H       
  36 H36            6.7710     3.1862    -4.4898 H       
  37 H37            5.6458     0.2229    -0.6886 H       
  38 H38            9.2213     1.6790    -4.3533 H       
  39 H39            8.4080    -0.8706    -1.1813 H       
  40 H40           -7.4753     2.8538     0.1824 H       
  41 H41            5.1200     1.5247     0.8947 H       
  42 H42            3.6042     2.3909     1.2413 H       
  43 H43            3.7976     0.6966     1.7513 H       
@<TRIPOS>BOND
   1    1    2 2
   2    1    5 1
   3    2    3 1
   4    2    9 1
   5    3    4 2
   6    4    5 1
   7    4    6 1
   8    6    7 1
   9    6   29 1
  10    6   30 1
  11    7    8 1
  12    8   16 ar
  13    8   20 ar
  14    9   10 1
  15    9   31 1
  16   10   11 ar
  17   10   15 ar
  18   11   12 ar
  19   11   32 1
  20   12   13 ar
  21   12   33 1
  22   13   14 ar
  23   13   24 1
  24   14   15 ar
  25   14   25 1
  26   15   34 1
  27   16   17 ar
  28   16   35 1
  29   17   18 ar
  30   17   36 1
  31   18   19 ar
  32   18   21 1
  33   19   20 ar
  34   19   23 1
  35   20   37 1
  36   21   22 1
  37   21   38 1
  38   22   23 2
  39   23   39 1
  40   24   26 1
  41   26   27 1
  42   26   28 1
  43   26   40 1
  44   29   41 1
  45   29   42 1
  46   29   43 1

#	End of record

