#	Name: ASD07930565
#	Creating user name:	WinNT
#	Creation time:	15. 06. 2019 21:12

#	Modifying user name:	WinNT
#	Modification time:	15. 06. 2019 21:12

#	Program:	/corina/corina34_cracker 3.40 0067  02.08.2006

@<TRIPOS>MOLECULE
ASD07930565
  48   50    0    0    0
SMALL
NO_CHARGES


@<TRIPOS>ATOM
   1 C1            -0.0342     1.4581     0.0424 C.3     
   2 N2             0.7953    -0.4134    -2.1302 N.2     
   3 N3            -0.8904    -1.7835    -1.2685 N.pl3   
   4 C4            -0.9150    -2.8271    -0.2383 C.3     
   5 C5            -1.2300    -2.1885     1.1215 C.3     
   6 S6             0.0062    -0.8913     1.4434 S.o2    
   7 N7            -0.0140    -0.0067     0.0315 N.am    
   8 C8            -0.0112    -0.7260    -1.1552 C.2     
   9 C9             0.4500    -3.5154    -0.1755 C.3     
  10 C10           -1.9764    -3.8423    -0.5755 C.ar    
  11 C11           -2.8068    -3.6379    -1.6599 C.ar    
  12 C12           -3.7849    -4.5737    -1.9711 C.ar    
  13 C13           -3.9260    -5.7135    -1.1909 C.ar    
  14 C14           -3.0929    -5.9145    -0.1063 C.ar    
  15 C15           -2.1145    -4.9819     0.1988 C.ar    
  16 O16           -0.4576     0.0117     2.4377 O.2     
  17 O17            1.3141    -1.4440     1.5003 O.2     
  18 F18           -1.3008    -5.1799     1.2589 F       
  19 N19           -4.6274    -4.3678    -3.0693 N.am    
  20 C20           -5.0472    -5.4176    -3.8028 C.2     
  21 O21           -4.6179    -6.5312    -3.5715 O.2     
  22 C22           -6.0298    -5.2150    -4.8891 C.ar    
  23 N23           -6.5005    -3.9951    -5.1430 N.ar    
  24 N24           -7.3378    -6.1173    -6.6217 N.ar    
  25 C25           -6.4602    -6.2999    -5.6521 C.ar    
  26 C26           -7.3747    -3.8157    -6.1096 C.ar    
  27 C27           -7.8096    -4.9030    -6.8693 C.ar    
  28 O28           -8.7097    -4.7164    -7.8647 O.3     
  29 Cl29          -3.2686    -7.3389     0.8704 Cl      
  30 C30           -9.1107    -5.8731    -8.6019 C.3     
  31 H31           -9.5679    -6.5948    -7.9250 H       
  32 H32           -9.8319    -5.5846    -9.3665 H       
  33 H33           -8.2382    -6.3221    -9.0764 H       
  34 H34            0.9883     1.8356     0.0393 H       
  35 H35           -0.5581     1.8209    -0.8419 H       
  36 H36           -0.5479     1.8077     0.9379 H       
  37 H37            1.4071     0.3331    -2.0332 H       
  38 H38           -1.4883    -1.8387    -2.0303 H       
  39 H39           -2.2269    -1.7484     1.0987 H       
  40 H40           -1.1799    -2.9460     1.9037 H       
  41 H41            1.2166    -2.7805     0.0704 H       
  42 H42            0.4311    -4.2908     0.5903 H       
  43 H43            0.6749    -3.9652    -1.1426 H       
  44 H44           -2.6960    -2.7506    -2.2655 H       
  45 H45           -4.6861    -6.4421    -1.4310 H       
  46 H46           -4.9093    -3.4694    -3.3026 H       
  47 H47           -6.0758    -7.2888    -5.4504 H       
  48 H48           -7.7565    -2.8266    -6.3152 H       
@<TRIPOS>BOND
   1    1    7 1
   2    1   34 1
   3    1   35 1
   4    1   36 1
   5    2    8 2
   6    2   37 1
   7    3    4 1
   8    3    8 1
   9    3   38 1
  10    4    5 1
  11    4    9 1
  12    4   10 1
  13    5    6 1
  14    5   39 1
  15    5   40 1
  16    6    7 am
  17    6   16 2
  18    6   17 2
  19    7    8 1
  20    9   41 1
  21    9   42 1
  22    9   43 1
  23   10   11 ar
  24   10   15 ar
  25   11   12 ar
  26   11   44 1
  27   12   13 ar
  28   12   19 1
  29   13   14 ar
  30   13   45 1
  31   14   15 ar
  32   14   29 1
  33   15   18 1
  34   19   20 am
  35   19   46 1
  36   20   21 2
  37   20   22 1
  38   22   23 ar
  39   22   25 ar
  40   23   26 ar
  41   24   25 ar
  42   24   27 ar
  43   25   47 1
  44   26   27 ar
  45   26   48 1
  46   27   28 1
  47   28   30 1
  48   30   31 1
  49   30   32 1
  50   30   33 1

#	End of record

