#	Name: ASD03090742
#	Creating user name:	WinNT
#	Creation time:	15. 06. 2019 20:29

#	Modifying user name:	WinNT
#	Modification time:	15. 06. 2019 20:29

#	Program:	/corina/corina34_cracker 3.40 0067  02.08.2006

@<TRIPOS>MOLECULE
ASD03090742
  35   36    0    0    0
SMALL
NO_CHARGES


@<TRIPOS>ATOM
   1 N1            -0.0162     1.3436     0.0094 N.am    
   2 C2             0.0189     0.1476     0.6298 C.2     
   3 O3             1.0722    -0.2858     1.0555 O.2     
   4 N4            -1.1134    -0.5681     0.7782 N.am    
   5 O5            -1.7395    -3.6097     2.2172 O.3     
   6 N6            -2.0866    -2.6079     1.6360 N.2     
   7 C7            -1.0771    -1.8058     1.4201 C.2     
   8 C8             0.0641    -2.4477     1.9704 C.2     
   9 C9            -0.4227    -3.6062     2.4705 C.2     
  10 C10            0.3617    -4.6831     3.1748 C.3     
  11 F11            0.3800    -4.4233     4.5494 F       
  12 F12           -0.2391    -5.9250     2.9429 F       
  13 F13            1.6725    -4.7006     2.6861 F       
  14 C14            1.1455     2.1270    -0.0705 C.ar    
  15 C15            1.0459     3.5104    -0.1989 C.ar    
  16 C16            2.1937     4.2813    -0.2770 C.ar    
  17 C17            3.4402     3.6751    -0.2274 C.ar    
  18 C18            3.5382     2.2968    -0.0995 C.ar    
  19 C19            2.3935     1.5252    -0.0159 C.ar    
  20 O20            4.5673     4.4321    -0.3046 O.3     
  21 C21            4.3926     5.8443    -0.4357 C.3     
  22 O22           -0.1771     4.1033    -0.2478 O.3     
  23 C23           -0.2035     5.5259    -0.3803 C.3     
  24 Cl24           5.0997     1.5408    -0.0382 Cl      
  25 H25           -0.8434     1.6611    -0.3853 H       
  26 H26           -1.9537    -0.2224     0.4385 H       
  27 H27            1.0841    -2.0932     1.9856 H       
  28 H28            2.1183     5.3540    -0.3769 H       
  29 H29            2.4716     0.4530     0.0877 H       
  30 H30            3.8332     6.0582    -1.3464 H       
  31 H31            3.8433     6.2240     0.4258 H       
  32 H32            5.3681     6.3280    -0.4865 H       
  33 H33            0.2990     5.8143    -1.3035 H       
  34 H34           -1.2377     5.8692    -0.4069 H       
  35 H35            0.3080     5.9794     0.4687 H       
@<TRIPOS>BOND
   1    1    2 am
   2    1   14 1
   3    1   25 1
   4    2    3 2
   5    2    4 am
   6    4    7 1
   7    4   26 1
   8    5    6 1
   9    5    9 1
  10    6    7 2
  11    7    8 1
  12    8    9 2
  13    8   27 1
  14    9   10 1
  15   10   11 1
  16   10   12 1
  17   10   13 1
  18   14   15 ar
  19   14   19 ar
  20   15   16 ar
  21   15   22 1
  22   16   17 ar
  23   16   28 1
  24   17   18 ar
  25   17   20 1
  26   18   19 ar
  27   18   24 1
  28   19   29 1
  29   20   21 1
  30   21   30 1
  31   21   31 1
  32   21   32 1
  33   22   23 1
  34   23   33 1
  35   23   34 1
  36   23   35 1

#	End of record

