#	Name: ASD00461046
#	Creating user name:	WinNT
#	Creation time:	15. 06. 2019 18:36

#	Modifying user name:	WinNT
#	Modification time:	15. 06. 2019 18:36

#	Program:	/corina/corina34_cracker 3.40 0067  02.08.2006

@<TRIPOS>MOLECULE
ASD00461046
  72   75    0    0    0
SMALL
NO_CHARGES


@<TRIPOS>ATOM
   1 C1            -0.0168     1.3896     0.0097 C.ar    
   2 C2             0.0021    -0.0041     0.0020 C.ar    
   3 C3             1.2218    -0.6793    -0.0133 C.ar    
   4 C4             2.4025     0.0347    -0.0207 C.ar    
   5 C5             2.3775     1.4181    -0.0130 C.ar    
   6 C6             1.1705     2.0933     0.0021 C.ar    
   7 C7             3.7217    -0.6936    -0.0367 C.3     
   8 O8             4.6456    -0.0246     0.8241 O.3     
   9 C9             5.6146    -0.8890     1.4207 C.3     
  10 C10            6.5458    -0.0698     2.3167 C.3     
  11 C11            7.5034    -1.0098     3.0517 C.3     
  12 N12            8.3163    -0.2369     4.0003 N.3     
  13 C13            9.2497    -1.1087     4.7260 C.3     
  14 O14            7.2970     0.8434     1.5144 O.3     
  15 C15           10.0769    -0.2698     5.7021 C.3     
  16 C16            8.4617    -2.1655     5.5025 C.3     
  17 C17           10.1829    -1.7988     3.7290 C.3     
  18 C18           11.0346    -1.1642     6.4466 C.ar    
  19 C19           12.3060    -1.3935     5.9248 C.ar    
  20 C20           13.1948    -2.1963     6.5717 C.ar    
  21 C21           12.8280    -2.8040     7.7842 C.ar    
  22 C22           11.5348    -2.5703     8.3153 C.ar    
  23 C23           10.6464    -1.7315     7.6215 C.ar    
  24 C24           13.7182    -3.6394     8.4807 C.ar    
  25 C25           13.3279    -4.2113     9.6523 C.ar    
  26 C26           12.0563    -3.9814    10.1745 C.ar    
  27 C27           11.1678    -3.1785     9.5281 C.ar    
  28 C28           -1.2701    -0.7656     0.0106 C.ar    
  29 C29           -2.4887    -0.0867     0.0263 C.ar    
  30 C30           -3.6705    -0.7924     0.0347 C.ar    
  31 C31           -3.6491    -2.1899     0.0270 C.ar    
  32 C32           -2.4276    -2.8688     0.0108 C.ar    
  33 C33           -1.2474    -2.1605    -0.0029 C.ar    
  34 C34            4.2759    -0.7136    -1.4626 C.3     
  35 C35           -4.9154    -2.9480     0.0365 C.2     
  36 O36           -5.9770    -2.3573     0.0510 O.2     
  37 O37           -4.8942    -4.2952     0.0291 O.3     
  38 H38           -0.9588     1.9179     0.0170 H       
  39 H39            1.2425    -1.7591    -0.0189 H       
  40 H40            3.3042     1.9728    -0.0185 H       
  41 H41            1.1571     3.1732     0.0077 H       
  42 H42            3.5763    -1.7164     0.3110 H       
  43 H43            5.1070    -1.6454     2.0194 H       
  44 H44            6.1978    -1.3755     0.6389 H       
  45 H45            5.9539     0.4868     3.0433 H       
  46 H46            6.9299    -1.7620     3.5933 H       
  47 H47            8.1561    -1.5008     2.3298 H       
  48 H48            8.8083     0.5087     3.5312 H       
  49 H49            7.8483     0.4167     0.8443 H       
  50 H50           10.6384     0.4830     5.1489 H       
  51 H51            9.4122     0.2218     6.4124 H       
  52 H52            7.8724    -2.7631     4.8071 H       
  53 H53            9.1543    -2.8124     6.0410 H       
  54 H54            7.7969    -1.6739     6.2128 H       
  55 H55           10.7443    -1.0459     3.1757 H       
  56 H56           10.8755    -2.4457     4.2674 H       
  57 H57            9.5935    -2.3964     3.0335 H       
  58 H58           12.5904    -0.9276     4.9929 H       
  59 H59           14.1767    -2.3654     6.1549 H       
  60 H60            9.6579    -1.5444     8.0142 H       
  61 H61           14.7066    -3.8269     8.0879 H       
  62 H62           14.0138    -4.8531    10.1852 H       
  63 H63           11.7717    -4.4476    11.1063 H       
  64 H64           10.1860    -3.0093     9.9450 H       
  65 H65           -2.5049     0.9932     0.0323 H       
  66 H66           -4.6137    -0.2666     0.0476 H       
  67 H67           -2.4097    -3.9487     0.0052 H       
  68 H68           -0.3033    -2.6849    -0.0155 H       
  69 H69            4.4213     0.3092    -1.8103 H       
  70 H70            5.2301    -1.2404    -1.4742 H       
  71 H71            3.5712    -1.2239    -2.1192 H       
  72 H72           -5.7487    -4.7478     0.0358 H       
@<TRIPOS>BOND
   1    1    2 ar
   2    1    6 ar
   3    1   38 1
   4    2    3 ar
   5    2   28 1
   6    3    4 ar
   7    3   39 1
   8    4    5 ar
   9    4    7 1
  10    5    6 ar
  11    5   40 1
  12    6   41 1
  13    7    8 1
  14    7   34 1
  15    7   42 1
  16    8    9 1
  17    9   10 1
  18    9   43 1
  19    9   44 1
  20   10   11 1
  21   10   14 1
  22   10   45 1
  23   11   12 1
  24   11   46 1
  25   11   47 1
  26   12   13 1
  27   12   48 1
  28   13   15 1
  29   13   16 1
  30   13   17 1
  31   14   49 1
  32   15   18 1
  33   15   50 1
  34   15   51 1
  35   16   52 1
  36   16   53 1
  37   16   54 1
  38   17   55 1
  39   17   56 1
  40   17   57 1
  41   18   19 ar
  42   18   23 ar
  43   19   20 ar
  44   19   58 1
  45   20   21 ar
  46   20   59 1
  47   21   22 ar
  48   21   24 ar
  49   22   23 ar
  50   22   27 ar
  51   23   60 1
  52   24   25 ar
  53   24   61 1
  54   25   26 ar
  55   25   62 1
  56   26   27 ar
  57   26   63 1
  58   27   64 1
  59   28   29 ar
  60   28   33 ar
  61   29   30 ar
  62   29   65 1
  63   30   31 ar
  64   30   66 1
  65   31   32 ar
  66   31   35 1
  67   32   33 ar
  68   32   67 1
  69   33   68 1
  70   34   69 1
  71   34   70 1
  72   34   71 1
  73   35   36 2
  74   35   37 1
  75   37   72 1

#	End of record

