#	Name: ASD01901423
#	Creating user name:	WinNT
#	Creation time:	15. 06. 2019 19:53

#	Modifying user name:	WinNT
#	Modification time:	15. 06. 2019 19:53

#	Program:	/corina/corina34_cracker 3.40 0067  02.08.2006

@<TRIPOS>MOLECULE
ASD01901423
  41   44    0    0    0
SMALL
NO_CHARGES


@<TRIPOS>ATOM
   1 C1            -0.0169     1.3937     0.0097 C.ar    
   2 C2             1.1757     2.0983     0.0021 C.ar    
   3 C3             2.3817     1.4191    -0.0131 C.ar    
   4 C4             2.4024     0.0333    -0.0207 C.ar    
   5 C5             1.2204    -0.6788    -0.0132 C.ar    
   6 C6             0.0021    -0.0041     0.0020 C.ar    
   7 C7            -1.2712    -0.7661     0.0106 C.2     
   8 N8            -3.1798    -1.5363    -1.1466 N.2     
   9 C9            -2.0560    -0.8621    -1.1592 C.2     
  10 C10           -1.6980    -1.3898     1.1495 C.2     
  11 N11           -2.8730    -2.0818     1.1228 N.pl3   
  12 C12           -3.6093    -2.1466    -0.0319 C.2     
  13 C13           -3.5505    -2.7944     2.0751 C.2     
  14 C14           -4.6698    -3.2726     1.4911 C.2     
  15 N15           -4.6914    -2.8709     0.2169 N.2     
  16 C16           -5.7204    -4.1175     2.1645 C.3     
  17 O17           -5.3519    -4.3394     3.5272 O.3     
  18 C18           -6.1972    -5.0876     4.2799 C.ar    
  19 C19           -5.8962    -5.3330     5.6120 C.ar    
  20 N20           -7.3031    -5.5713     3.7378 N.ar    
  21 C21           -8.1536    -6.3032     4.4326 C.ar    
  22 C22           -7.9176    -6.5926     5.7609 C.ar    
  23 C23           -6.7692    -6.0990     6.3704 C.ar    
  24 O24           -1.2013     2.0590     0.0302 O.3     
  25 F25            3.5429     2.1096    -0.0209 F       
  26 F26           -6.5097    -6.3597     7.6704 F       
  27 C27           -1.1434     3.4868     0.0370 C.3     
  28 H28            1.1645     3.1782     0.0076 H       
  29 H29            3.3466    -0.4909    -0.0329 H       
  30 H30            1.2400    -1.7586    -0.0196 H       
  31 H31           -1.7292    -0.3779    -2.0676 H       
  32 H32           -1.1138    -1.3358     2.0563 H       
  33 H33           -3.2467    -2.9457     3.1004 H       
  34 H34           -6.6801    -3.6020     2.1270 H       
  35 H35           -5.8019    -5.0747     1.6495 H       
  36 H36           -4.9945    -4.9334     6.0522 H       
  37 H37           -9.0460    -6.6803     3.9553 H       
  38 H38           -8.6191    -7.1921     6.3222 H       
  39 H39           -0.6280     3.8337    -0.8587 H       
  40 H40           -2.1553     3.8914     0.0536 H       
  41 H41           -0.6025     3.8243     0.9211 H       
@<TRIPOS>BOND
   1    1    6 ar
   2    1    2 ar
   3    1   24 1
   4    2    3 ar
   5    2   28 1
   6    3    4 ar
   7    3   25 1
   8    4    5 ar
   9    4   29 1
  10    5    6 ar
  11    5   30 1
  12    6    7 1
  13    7   10 2
  14    7    9 1
  15    8    9 2
  16    8   12 1
  17    9   31 1
  18   10   11 1
  19   10   32 1
  20   11   13 1
  21   11   12 1
  22   12   15 2
  23   13   14 2
  24   13   33 1
  25   14   15 1
  26   14   16 1
  27   16   17 1
  28   16   34 1
  29   16   35 1
  30   17   18 1
  31   18   20 ar
  32   18   19 ar
  33   19   23 ar
  34   19   36 1
  35   20   21 ar
  36   21   22 ar
  37   21   37 1
  38   22   23 ar
  39   22   38 1
  40   23   26 1
  41   24   27 1
  42   27   39 1
  43   27   40 1
  44   27   41 1

#	End of record

