#	Name: ASD06660189
#	Creating user name:	WinNT
#	Creation time:	15. 06. 2019 21:08

#	Modifying user name:	WinNT
#	Modification time:	15. 06. 2019 21:08

#	Program:	/corina/corina34_cracker 3.40 0067  02.08.2006

@<TRIPOS>MOLECULE
ASD06660189
  66   69    0    0    0
SMALL
NO_CHARGES


@<TRIPOS>ATOM
   1 C1            -0.0992     1.3819     0.0421 C.2     
   2 C2            -0.0396    -0.1238     0.0261 C.3     
   3 C3            -0.7566    -0.6494    -1.2191 C.3     
   4 O4             0.9223     2.0270     0.0351 O.2     
   5 O5            -1.2873     2.0064     0.0585 O.3     
   6 C6            -0.8045    -2.1550    -1.1733 C.ar    
   7 C7            -1.8732    -2.7932    -0.5711 C.ar    
   8 C8            -1.9202    -4.1728    -0.5273 C.ar    
   9 C9            -0.8923    -4.9193    -1.0892 C.ar    
  10 C10            0.1798    -4.2750    -1.6934 C.ar    
  11 C11            0.2177    -2.8952    -1.7386 C.ar    
  12 N12           -0.9365    -6.3147    -1.0463 N.3     
  13 C13            0.2443    -6.8987    -1.6953 C.3     
  14 C14            0.0927    -8.4203    -1.7590 C.3     
  15 C15           -0.0582    -8.9731    -0.3391 C.3     
  16 C16           -1.2662    -8.3131     0.3314 C.3     
  17 C17           -1.0753    -6.7947     0.3345 C.3     
  18 C18           -0.2710   -10.4870    -0.3998 C.3     
  19 N19           -0.2960   -11.0316     0.9600 N.pl3   
  20 C20           -0.4781   -12.3951     1.1594 C.ar    
  21 C21           -0.6362   -13.2372     0.0631 C.ar    
  22 C22           -0.8166   -14.5917     0.2760 C.ar    
  23 C23           -0.8331   -15.0608     1.5831 C.ar    
  24 C24           -0.6701   -14.1688     2.6236 C.ar    
  25 N25           -0.4943   -12.8817     2.3906 N.ar    
  26 C26            2.0488    -0.6707     1.1559 C.2     
  27 C27            3.4610    -1.1078     1.1328 C.ar    
  28 C28            4.0569    -1.5273    -0.0629 C.ar    
  29 C29            5.3814    -1.9260    -0.0307 C.ar    
  30 C30            6.0680    -1.8979     1.1700 C.ar    
  31 N31            5.4805    -1.4977     2.2814 N.ar    
  32 C32            4.2240    -1.1037     2.3008 C.ar    
  33 O33            1.5093    -0.4140     2.2144 O.2     
  34 N34            1.3597    -0.5569     0.0032 N.am    
  35 C35            3.6032    -0.6505     3.5971 C.3     
  36 H36           -0.5269    -0.5162     0.9187 H       
  37 H37           -1.7721    -0.2543    -1.2476 H       
  38 H38           -0.2173    -0.3300    -2.1109 H       
  39 H39           -1.2749     2.9733     0.0684 H       
  40 H40           -2.6719    -2.2122    -0.1341 H       
  41 H41           -2.7551    -4.6706    -0.0565 H       
  42 H42            0.9806    -4.8524    -2.1312 H       
  43 H43            1.0486    -2.3936    -2.2123 H       
  44 H44            0.3376    -6.5005    -2.7056 H       
  45 H45            1.1361    -6.6463    -1.1217 H       
  46 H46           -0.7913    -8.6738    -2.3441 H       
  47 H47            0.9763    -8.8547    -2.2267 H       
  48 H48            0.8421    -8.7536     0.2349 H       
  49 H49           -2.1716    -8.5649    -0.2208 H       
  50 H50           -1.3536    -8.6709     1.3573 H       
  51 H51           -0.1773    -6.5427     0.8986 H       
  52 H52           -1.9403    -6.3208     0.7985 H       
  53 H53           -1.2184   -10.7012    -0.8944 H       
  54 H54            0.5434   -10.9462    -0.9602 H       
  55 H55           -0.1854   -10.4406     1.7212 H       
  56 H56           -0.6186   -12.8384    -0.9404 H       
  57 H57           -0.9423   -15.2694    -0.5555 H       
  58 H58           -0.9723   -16.1129     1.7833 H       
  59 H59           -0.6823   -14.5293     3.6416 H       
  60 H60            3.4970    -1.5396    -0.9863 H       
  61 H61            5.8739    -2.2562    -0.9334 H       
  62 H62            7.1019    -2.2089     1.1981 H       
  63 H63            1.7902    -0.7618    -0.8415 H       
  64 H64            3.0561    -1.4789     4.0471 H       
  65 H65            4.3865    -0.3193     4.2788 H       
  66 H66            2.9179     0.1746     3.4028 H       
@<TRIPOS>BOND
   1    1    2 1
   2    1    4 2
   3    1    5 1
   4    2    3 1
   5    2   34 1
   6    2   36 1
   7    3    6 1
   8    3   37 1
   9    3   38 1
  10    5   39 1
  11    6    7 ar
  12    6   11 ar
  13    7    8 ar
  14    7   40 1
  15    8    9 ar
  16    8   41 1
  17    9   10 ar
  18    9   12 1
  19   10   11 ar
  20   10   42 1
  21   11   43 1
  22   12   13 1
  23   12   17 1
  24   13   14 1
  25   13   44 1
  26   13   45 1
  27   14   15 1
  28   14   46 1
  29   14   47 1
  30   15   16 1
  31   15   18 1
  32   15   48 1
  33   16   17 1
  34   16   49 1
  35   16   50 1
  36   17   51 1
  37   17   52 1
  38   18   19 1
  39   18   53 1
  40   18   54 1
  41   19   20 1
  42   19   55 1
  43   20   21 ar
  44   20   25 ar
  45   21   22 ar
  46   21   56 1
  47   22   23 ar
  48   22   57 1
  49   23   24 ar
  50   23   58 1
  51   24   25 ar
  52   24   59 1
  53   26   27 1
  54   26   33 2
  55   26   34 am
  56   27   28 ar
  57   27   32 ar
  58   28   29 ar
  59   28   60 1
  60   29   30 ar
  61   29   61 1
  62   30   31 ar
  63   30   62 1
  64   31   32 ar
  65   32   35 1
  66   34   63 1
  67   35   64 1
  68   35   65 1
  69   35   66 1

#	End of record

