#	Name: ASD02198126
#	Creating user name:	WinNT
#	Creation time:	15. 06. 2019 20:18

#	Modifying user name:	WinNT
#	Modification time:	15. 06. 2019 20:18

#	Program:	/corina/corina34_cracker 3.40 0067  02.08.2006

@<TRIPOS>MOLECULE
ASD02198126
  50   52    0    0    0
SMALL
NO_CHARGES


@<TRIPOS>ATOM
   1 C1            -0.0167     1.3799     0.0096 C.2     
   2 C2             0.0021    -0.0041     0.0020 C.2     
   3 C3            -1.1887    -0.7995     0.0091 C.1     
   4 S4             1.6265     2.0020    -0.0027 S.3     
   5 C5             2.2951     0.3774    -0.0178 C.2     
   6 C6             1.2783    -0.5535    -0.0131 C.2     
   7 C7             3.6766     0.0692    -0.0327 C.2     
   8 C8             4.6263     1.1028    -0.0357 C.2     
   9 O9             4.0432    -1.0992    -0.0429 O.2     
  10 N10            1.5090    -1.9199    -0.0227 N.pl3   
  11 N11           -1.1507     2.1518     0.0194 N.pl3   
  12 N12           -2.1333    -1.4305     0.0147 N.1     
  13 S13            4.2694     2.6145    -0.0230 S.o     
  14 C14           -1.0423     3.6128     0.0268 C.3     
  15 C15           -2.3112     4.2214    -0.5734 C.3     
  16 C16           -0.5962     5.8041     3.0834 C.3     
  17 O17           -0.7545     5.4100     1.6949 O.3     
  18 C18           -0.8747     4.0969     1.4440 C.2     
  19 O19           -0.8485     3.3030     2.3545 O.2     
  20 C20           -2.4157     3.8308    -2.0490 C.3     
  21 S21           -3.9202     4.5524    -2.7605 S.3     
  22 C22            5.9632     3.2907    -0.0342 C.3     
  23 C23            6.8247     2.0417    -0.0499 C.ar    
  24 C24            6.0232     0.8954    -0.0445 C.ar    
  25 C25            8.2012     1.9398    -0.0631 C.ar    
  26 C26            8.8159     0.6996    -0.0765 C.ar    
  27 C27            8.0433    -0.4515    -0.0766 C.ar    
  28 C28            6.6760    -0.3704    -0.0581 C.ar    
  29 C29           -3.8683     3.9875    -4.4835 C.3     
  30 H30            2.4181    -2.2581    -0.0332 H       
  31 H31            0.7616    -2.5380    -0.0188 H       
  32 H32           -2.0243     1.7303     0.0214 H       
  33 H33            3.8468     2.8362    -1.2805 H       
  34 H34           -0.1787     3.9161    -0.5653 H       
  35 H35           -3.1828     3.8476    -0.0360 H       
  36 H36           -2.2694     5.3072    -0.4870 H       
  37 H37           -1.4635     5.4747     3.6557 H       
  38 H38            0.3041     5.3444     3.4912 H       
  39 H39           -0.5104     6.8889     3.1458 H       
  40 H40           -1.5441     4.2046    -2.5863 H       
  41 H41           -2.4575     2.7450    -2.1353 H       
  42 H42            6.1341     3.8888    -0.9293 H       
  43 H43            6.1505     3.8776     0.8650 H       
  44 H44            8.8041     2.8358    -0.0634 H       
  45 H45            9.8936     0.6290    -0.0872 H       
  46 H46            8.5229    -1.4191    -0.0875 H       
  47 H47            6.0869    -1.2756    -0.0585 H       
  48 H48           -4.7394     4.3678    -5.0169 H       
  49 H49           -2.9604     4.3574    -4.9600 H       
  50 H50           -3.8738     2.8978    -4.5089 H       
@<TRIPOS>BOND
   1    1    2 2
   2    1    4 1
   3    1   11 1
   4    2    3 1
   5    2    6 1
   6    3   12 3
   7    4    5 1
   8    5    6 2
   9    5    7 1
  10    6   10 1
  11    7    8 1
  12    7    9 2
  13    8   13 2
  14    8   24 1
  15   10   30 1
  16   10   31 1
  17   11   14 1
  18   11   32 1
  19   13   22 1
  20   13   33 1
  21   14   15 1
  22   14   18 1
  23   14   34 1
  24   15   20 1
  25   15   35 1
  26   15   36 1
  27   16   17 1
  28   16   37 1
  29   16   38 1
  30   16   39 1
  31   17   18 1
  32   18   19 2
  33   20   21 1
  34   20   40 1
  35   20   41 1
  36   21   29 1
  37   22   23 1
  38   22   42 1
  39   22   43 1
  40   23   24 ar
  41   23   25 ar
  42   24   28 ar
  43   25   26 ar
  44   25   44 1
  45   26   27 ar
  46   26   45 1
  47   27   28 ar
  48   27   46 1
  49   28   47 1
  50   29   48 1
  51   29   49 1
  52   29   50 1

#	End of record

