#	Name: ASD03930110
#	Creating user name:	WinNT
#	Creation time:	15. 06. 2019 20:47

#	Modifying user name:	WinNT
#	Modification time:	15. 06. 2019 20:47

#	Program:	/corina/corina34_cracker 3.40 0067  02.08.2006

@<TRIPOS>MOLECULE
ASD03930110
  47   49    0    0    0
SMALL
NO_CHARGES


@<TRIPOS>ATOM
   1 C1            -0.0167     1.3779     0.0096 C.ar    
   2 C2             0.0021    -0.0041     0.0020 C.ar    
   3 C3             1.2084    -0.6771    -0.0131 C.ar    
   4 C4             2.3998     0.0283    -0.0202 C.ar    
   5 C5             2.3810     1.4107    -0.0126 C.ar    
   6 C6             1.1710     2.0835     0.0021 C.ar    
   7 C7             3.8311    -0.4638    -0.0359 C.3     
   8 C8             4.6718     0.7530    -0.4773 C.3     
   9 C9             3.7985     1.9416    -0.0226 C.3     
  10 N10            5.9671     0.7668     0.2070 N.am    
  11 C11           -1.2922    -0.7760     0.0107 C.3     
  12 N12           -1.7253    -1.0187    -1.3676 N.pl3   
  13 N13           -1.9198    -0.0434    -2.3542 N.2     
  14 C14           -2.3054    -0.6430    -3.4513 C.2     
  15 C15           -2.3688    -2.0173    -3.1989 C.2     
  16 C16           -2.0018    -2.2218    -1.9127 C.2     
  17 C17           -2.6264     0.0307    -4.7605 C.3     
  18 F18           -2.3399     1.3967    -4.6645 F       
  19 F19           -1.8537    -0.5373    -5.7790 F       
  20 F20           -3.9835    -0.1417    -5.0533 F       
  21 S21            7.3153     1.3149    -0.5832 S.o2    
  22 O22            8.3638     1.1589     0.3630 O.2     
  23 O23            7.3206     0.5945    -1.8081 O.2     
  24 C24            6.9823     3.0732    -0.8804 C.3     
  25 C25            8.1696     3.7002    -1.6139 C.3     
  26 C26           -2.7690    -3.0826    -4.1869 C.3     
  27 O27           -2.7107    -4.3635    -3.5560 O.3     
  28 H28           -0.9589     1.9056     0.0170 H       
  29 H29            1.2222    -1.7570    -0.0191 H       
  30 H30            1.1556     3.1633     0.0076 H       
  31 H31            4.1303    -0.7888     0.9606 H       
  32 H32            3.9428    -1.2797    -0.7500 H       
  33 H33            4.8039     0.7608    -1.5592 H       
  34 H34            3.8878     2.7681    -0.7277 H       
  35 H35            4.0889     2.2636     0.9774 H       
  36 H36            6.0351     0.4550     1.1230 H       
  37 H37           -1.1433    -1.7292     0.5180 H       
  38 H38           -2.0549    -0.2005     0.5353 H       
  39 H39           -1.9472    -3.1762    -1.4101 H       
  40 H40            6.0840     3.1750    -1.4894 H       
  41 H41            6.8346     3.5811     0.0727 H       
  42 H42            9.0678     3.5984    -1.0049 H       
  43 H43            8.3172     3.1923    -2.5669 H       
  44 H44            7.9695     4.7567    -1.7924 H       
  45 H45           -3.7852    -2.8940    -4.5330 H       
  46 H46           -2.0866    -3.0648    -5.0367 H       
  47 H47           -2.9562    -5.0984    -4.1345 H       
@<TRIPOS>BOND
   1    1    2 ar
   2    1    6 ar
   3    1   28 1
   4    2    3 ar
   5    2   11 1
   6    3    4 ar
   7    3   29 1
   8    4    5 ar
   9    4    7 1
  10    5    6 ar
  11    5    9 1
  12    6   30 1
  13    7    8 1
  14    7   31 1
  15    7   32 1
  16    8    9 1
  17    8   10 1
  18    8   33 1
  19    9   34 1
  20    9   35 1
  21   10   21 am
  22   10   36 1
  23   11   12 1
  24   11   37 1
  25   11   38 1
  26   12   13 1
  27   12   16 1
  28   13   14 2
  29   14   15 1
  30   14   17 1
  31   15   16 2
  32   15   26 1
  33   16   39 1
  34   17   18 1
  35   17   19 1
  36   17   20 1
  37   21   22 2
  38   21   23 2
  39   21   24 1
  40   24   25 1
  41   24   40 1
  42   24   41 1
  43   25   42 1
  44   25   43 1
  45   25   44 1
  46   26   27 1
  47   26   45 1
  48   26   46 1
  49   27   47 1

#	End of record

