#	Name: ASD00111056
#	Creating user name:	WinNT
#	Creation time:	15. 06. 2019 18:30

#	Modifying user name:	WinNT
#	Modification time:	15. 06. 2019 18:30

#	Program:	/corina/corina34_cracker 3.40 0067  02.08.2006

@<TRIPOS>MOLECULE
ASD00111056
  29   29    0    0    0
SMALL
NO_CHARGES


@<TRIPOS>ATOM
   1 N1            -0.0178     1.4608     0.0101 N.am    
   2 C2             0.0021    -0.0041     0.0020 C.3     
   3 C3            -1.4333    -0.5336     0.0129 C.3     
   4 C4            -1.4129    -2.0405     0.0046 C.ar    
   5 C5            -1.2067    -2.7224    -1.1813 C.ar    
   6 C6            -1.1870    -4.1052    -1.1917 C.ar    
   7 C7            -1.3733    -4.8087    -0.0173 C.ar    
   8 C8            -1.5802    -4.1270     1.1729 C.ar    
   9 C9            -1.5943    -2.7396     1.1819 C.ar    
  10 O10           -1.7636    -4.8170     2.3293 O.3     
  11 C11           -1.7312    -6.2432     2.2460 C.3     
  12 I12           -0.9246    -1.6588    -2.9640 I       
  13 C13            1.1401     2.1505     0.0027 C.2     
  14 O14            2.1985     1.5584    -0.0106 O.2     
  15 C15            1.1197     3.6573     0.0110 C.3     
  16 F16            2.4322     4.1416     0.0011 F       
  17 F17            0.4430     4.1208    -1.1224 F       
  18 F18            0.4648     4.1085     1.1620 F       
  19 H19           -0.8643     1.9343     0.0167 H       
  20 H20            0.5123    -0.3556    -0.8948 H       
  21 H21            0.5293    -0.3651     0.8851 H       
  22 H22           -1.9435    -0.1821     0.9097 H       
  23 H23           -1.9605    -0.1726    -0.8702 H       
  24 H24           -1.0262    -4.6356    -2.1187 H       
  25 H25           -1.3582    -5.8885    -0.0260 H       
  26 H26           -1.7508    -2.2067     2.1082 H       
  27 H27           -1.8906    -6.6688     3.2367 H       
  28 H28           -2.5171    -6.5857     1.5728 H       
  29 H29           -0.7614    -6.5629     1.8649 H       
@<TRIPOS>BOND
   1    1    2 1
   2    1   13 am
   3    1   19 1
   4    2    3 1
   5    2   20 1
   6    2   21 1
   7    3    4 1
   8    3   22 1
   9    3   23 1
  10    4    5 ar
  11    4    9 ar
  12    5    6 ar
  13    5   12 1
  14    6    7 ar
  15    6   24 1
  16    7    8 ar
  17    7   25 1
  18    8    9 ar
  19    8   10 1
  20    9   26 1
  21   10   11 1
  22   11   27 1
  23   11   28 1
  24   11   29 1
  25   13   14 2
  26   13   15 1
  27   15   16 1
  28   15   17 1
  29   15   18 1

#	End of record

