#	Name: ASD01948010
#	Creating user name:	WinNT
#	Creation time:	15. 06. 2019 20:13

#	Modifying user name:	WinNT
#	Modification time:	15. 06. 2019 20:13

#	Program:	/corina/corina34_cracker 3.40 0067  02.08.2006

@<TRIPOS>MOLECULE
ASD01948010
  61   68    0    0    0
SMALL
NO_CHARGES


@<TRIPOS>ATOM
   1 C1            -0.1697     1.1209     0.6956 C.ar    
   2 C2            -0.0052    -0.2594     0.6464 C.ar    
   3 C3             0.9488     1.9665     0.5102 C.ar    
   4 C4             2.2082     1.4091     0.2785 C.ar    
   5 C5             2.3608     0.0187     0.2309 C.ar    
   6 C6             1.2482    -0.8172     0.4150 C.ar    
   7 N7             3.4906    -0.7582     0.0233 N.pl3   
   8 C8             3.1430    -2.0871     0.0672 C.ar    
   9 C9             1.7536    -2.1866     0.3030 C.ar    
  10 C10            1.1389     3.4140     0.4972 C.ar    
  11 C11            2.5134     3.6409     0.2518 C.ar    
  12 N12            3.1442     2.4281     0.1275 N.pl3   
  13 C13            3.9221    -3.2341    -0.0764 C.ar    
  14 C14            3.2720    -4.4539     0.0145 C.ar    
  15 C15            1.9101    -4.5482     0.2369 C.ar    
  16 C16            1.1155    -3.4233     0.3877 C.ar    
  17 C17            0.2461     4.4721     0.6759 C.ar    
  18 C18            0.7703     5.7513     0.5970 C.ar    
  19 C19            2.1133     5.9755     0.3503 C.ar    
  20 C20            3.0148     4.9394     0.1732 C.ar    
  21 C21           -1.3690    -0.8616     0.8799 C.3     
  22 N22           -2.2891     0.2676     1.0559 N.am    
  23 C23           -1.5904     1.4101     0.9450 C.2     
  24 O24           -2.0645     2.5257     1.0433 O.2     
  25 C25            4.5698     2.2129    -0.1252 C.3     
  26 C26            5.3607     2.2704     1.1758 C.3     
  27 C27            4.8338    -0.2217    -0.2039 C.3     
  28 C28            5.6275    -0.1952     1.0962 C.3     
  29 C29            5.1435     0.9734     1.9634 C.3     
  30 C30            5.5499    -1.1910    -1.1466 C.3     
  31 O31            4.8117     1.0292    -0.8525 O.3     
  32 N32            3.7153     0.8091     2.2652 N.3     
  33 O33            5.4322    -1.4240     1.7991 O.3     
  34 C34            6.5463    -1.8170     2.6032 C.3     
  35 C35            3.5234     0.0238     3.4918 C.3     
  36 H36            4.9862    -3.1742    -0.2513 H       
  37 H37            3.8476    -5.3614    -0.0922 H       
  38 H38            1.4539    -5.5254     0.2955 H       
  39 H39            0.0523    -3.5006     0.5609 H       
  40 H40           -0.8032     4.3013     0.8662 H       
  41 H41            0.1127     6.5975     0.7312 H       
  42 H42            2.4706     6.9931     0.2943 H       
  43 H43            4.0606     5.1289    -0.0188 H       
  44 H44           -1.6680    -1.4580     0.0180 H       
  45 H45           -1.3574    -1.4791     1.7780 H       
  46 H46           -3.2426     0.2008     1.2213 H       
  47 H47            4.9140     3.0393    -0.7471 H       
  48 H48            6.4211     2.3861     0.9516 H       
  49 H49            5.0205     3.1180     1.7707 H       
  50 H50            6.6868    -0.0679     0.8731 H       
  51 H51            5.7153     1.0055     2.8908 H       
  52 H52            4.8450    -1.5615    -1.8908 H       
  53 H53            6.3680    -0.6731    -1.6473 H       
  54 H54            5.9469    -2.0288    -0.5734 H       
  55 H55            3.2548     1.7042     2.3332 H       
  56 H56            6.7452    -1.0478     3.3493 H       
  57 H57            6.3191    -2.7584     3.1035 H       
  58 H58            7.4242    -1.9447     1.9700 H       
  59 H59            3.9696    -0.9626     3.3652 H       
  60 H60            4.0009     0.5340     4.3283 H       
  61 H61            2.4572    -0.0827     3.6919 H       
@<TRIPOS>BOND
   1    1    2 ar
   2    1    3 ar
   3    1   23 1
   4    2   21 1
   5    2    6 ar
   6    3    4 ar
   7    3   10 1
   8    4    5 ar
   9    4   12 1
  10    5    6 ar
  11    5    7 1
  12    6    9 1
  13    7    8 1
  14    7   27 1
  15    8    9 ar
  16    8   13 ar
  17    9   16 ar
  18   10   11 ar
  19   10   17 ar
  20   11   12 1
  21   11   20 ar
  22   12   25 1
  23   13   14 ar
  24   13   36 1
  25   14   15 ar
  26   14   37 1
  27   15   16 ar
  28   15   38 1
  29   16   39 1
  30   17   18 ar
  31   17   40 1
  32   18   19 ar
  33   18   41 1
  34   19   20 ar
  35   19   42 1
  36   20   43 1
  37   21   22 1
  38   21   44 1
  39   21   45 1
  40   22   23 am
  41   22   46 1
  42   23   24 2
  43   25   26 1
  44   25   31 1
  45   25   47 1
  46   26   29 1
  47   26   48 1
  48   26   49 1
  49   27   30 1
  50   27   31 1
  51   27   28 1
  52   28   29 1
  53   28   33 1
  54   28   50 1
  55   29   32 1
  56   29   51 1
  57   30   52 1
  58   30   53 1
  59   30   54 1
  60   32   35 1
  61   32   55 1
  62   33   34 1
  63   34   56 1
  64   34   57 1
  65   34   58 1
  66   35   59 1
  67   35   60 1
  68   35   61 1

#	End of record

