#	Name: ASD01915472
#	Creating user name:	WinNT
#	Creation time:	15. 06. 2019 20:05

#	Modifying user name:	WinNT
#	Modification time:	15. 06. 2019 20:05

#	Program:	/corina/corina34_cracker 3.40 0067  02.08.2006

@<TRIPOS>MOLECULE
ASD01915472
  43   46    0    0    0
SMALL
NO_CHARGES


@<TRIPOS>ATOM
   1 C1            -0.0907     1.1673     0.5087 C.ar    
   2 C2            -0.0307    -0.1929     0.7485 C.ar    
   3 C3             1.1850    -0.8481     0.7192 C.ar    
   4 C4             2.3479    -0.1408     0.4484 C.ar    
   5 C5             2.2873     1.2234     0.2075 C.ar    
   6 C6             1.0676     1.8763     0.2382 C.ar    
   7 F7             1.0068     3.2054     0.0037 F       
   8 O8             3.5445    -0.7843     0.4198 O.3     
   9 C9             4.6999     0.0068     0.1347 C.3     
  10 C10            5.9248    -0.8710     0.1453 C.ar    
  11 C11            5.7881    -2.2220     0.4083 C.ar    
  12 N12            7.1059    -0.3360    -0.1019 N.ar    
  13 C13            8.2064    -1.0586    -0.1057 C.ar    
  14 C14            8.1513    -2.4256     0.1720 C.ar    
  15 C15            6.9168    -3.0256     0.4252 C.ar    
  16 C16            9.5364    -0.4284    -0.4306 C.3     
  17 C17           10.6472    -1.1085     0.3651 C.3     
  18 N18           10.5848    -2.5609     0.2174 N.am    
  19 C19            9.4031    -3.2075     0.2070 C.2     
  20 O20            9.3678    -4.4225     0.2263 O.2     
  21 C21           11.7710    -3.2915     0.0846 C.ar    
  22 C22           12.0630    -3.9318    -1.1126 C.ar    
  23 C23           13.2342    -4.6523    -1.2415 C.ar    
  24 C24           14.1169    -4.7368    -0.1779 C.ar    
  25 C25           13.8275    -4.0995     1.0170 C.ar    
  26 C26           12.6605    -3.3724     1.1479 C.ar    
  27 F27           15.2618    -5.4425    -0.3059 F       
  28 H28           -1.0428     1.6768     0.5281 H       
  29 H29           -0.9353    -0.7439     0.9593 H       
  30 H30            1.2306    -1.9106     0.9073 H       
  31 H31            3.1911     1.7759    -0.0030 H       
  32 H32            4.5915     0.4674    -0.8472 H       
  33 H33            4.8036     0.7844     0.8914 H       
  34 H34            4.8130    -2.6455     0.5986 H       
  35 H35            6.8441    -4.0831     0.6322 H       
  36 H36            9.7370    -0.5366    -1.4965 H       
  37 H37            9.5062     0.6311    -0.1762 H       
  38 H38           11.6133    -0.7536     0.0062 H       
  39 H39           10.5415    -0.8512     1.4190 H       
  40 H40           11.3745    -3.8667    -1.9421 H       
  41 H41           13.4616    -5.1504    -2.1724 H       
  42 H42           14.5169    -4.1672     1.8455 H       
  43 H43           12.4354    -2.8752     2.0798 H       
@<TRIPOS>BOND
   1    1    2 ar
   2    1    6 ar
   3    1   28 1
   4    2    3 ar
   5    2   29 1
   6    3    4 ar
   7    3   30 1
   8    4    5 ar
   9    4    8 1
  10    5    6 ar
  11    5   31 1
  12    6    7 1
  13    8    9 1
  14    9   10 1
  15    9   32 1
  16    9   33 1
  17   10   11 ar
  18   10   12 ar
  19   11   15 ar
  20   11   34 1
  21   12   13 ar
  22   13   14 ar
  23   13   16 1
  24   14   15 ar
  25   14   19 1
  26   15   35 1
  27   16   17 1
  28   16   36 1
  29   16   37 1
  30   17   18 1
  31   17   38 1
  32   17   39 1
  33   18   19 am
  34   18   21 1
  35   19   20 2
  36   21   22 ar
  37   21   26 ar
  38   22   23 ar
  39   22   40 1
  40   23   24 ar
  41   23   41 1
  42   24   25 ar
  43   24   27 1
  44   25   26 ar
  45   25   42 1
  46   26   43 1

#	End of record

