#	Name: ASD06620032
#	Creating user name:	WinNT
#	Creation time:	15. 06. 2019 21:07

#	Modifying user name:	WinNT
#	Modification time:	15. 06. 2019 21:07

#	Program:	/corina/corina34_cracker 3.40 0067  02.08.2006

@<TRIPOS>MOLECULE
ASD06620032
  41   44    0    0    0
SMALL
NO_CHARGES


@<TRIPOS>ATOM
   1 C1            -0.0167     1.3824     0.0096 C.ar    
   2 C2             0.0021    -0.0041     0.0020 C.ar    
   3 C3             1.2222    -0.6829    -0.0133 C.ar    
   4 C4             2.4101     0.0323    -0.0204 C.ar    
   5 C5             2.3813     1.4130    -0.0123 C.ar    
   6 C6             1.1716     2.0860     0.0021 C.ar    
   7 C7            -0.4132    -2.1862    -0.0057 C.2     
   8 N8            -0.9980    -0.9736     0.0064 N.am    
   9 N9             0.9256    -2.0438    -0.0178 N.am    
  10 O10           -1.0048    -3.2496    -0.0054 O.2     
  11 C11           -2.4403    -0.7174     0.0219 C.3     
  12 C12           -3.4598     0.1924    -3.3371 C.2     
  13 C13           -3.6812     0.9737    -4.4889 C.2     
  14 C14           -4.2573     0.4027    -5.5808 C.2     
  15 C15           -4.6227    -0.9533    -5.5457 C.2     
  16 C16           -4.4046    -1.6886    -4.4353 C.2     
  17 N17           -3.8271    -1.1283    -3.3329 N.pl3   
  18 N18           -2.9348     0.4761    -2.1534 N.2     
  19 C19           -2.9488    -0.6216    -1.3934 C.2     
  20 C20           -3.4988    -1.6310    -2.1033 C.2     
  21 C21            1.9037    -3.1343    -0.0334 C.3     
  22 C22            1.7197    -4.0024     1.2130 C.3     
  23 C23            1.6950    -3.9888    -1.2853 C.3     
  24 H24           -0.9586     1.9108     0.0170 H       
  25 H25            3.3557    -0.4893    -0.0318 H       
  26 H26            3.3065     1.9701    -0.0178 H       
  27 H27            1.1571     3.1659     0.0077 H       
  28 H28           -2.9486    -1.5330     0.5362 H       
  29 H29           -2.6373     0.2195     0.5430 H       
  30 H30           -3.3965     2.0154    -4.5044 H       
  31 H31           -4.4334     0.9891    -6.4704 H       
  32 H32           -5.0803    -1.4093    -6.4112 H       
  33 H33           -4.6897    -2.7302    -4.4189 H       
  34 H34           -3.6523    -2.6445    -1.7634 H       
  35 H35            2.9113    -2.7186    -0.0411 H       
  36 H36            0.7121    -4.4181     1.2207 H       
  37 H37            2.4474    -4.8138     1.2014 H       
  38 H38            1.8684    -3.3937     2.1049 H       
  39 H39            0.6874    -4.4045    -1.2776 H       
  40 H40            1.8261    -3.3703    -2.1733 H       
  41 H41            2.4227    -4.8001    -1.2969 H       
@<TRIPOS>BOND
   1    1    2 ar
   2    1    6 ar
   3    1   24 1
   4    2    3 ar
   5    2    8 1
   6    3    4 ar
   7    3    9 1
   8    4    5 ar
   9    4   25 1
  10    5    6 ar
  11    5   26 1
  12    6   27 1
  13    7    8 am
  14    7    9 am
  15    7   10 2
  16    8   11 1
  17    9   21 1
  18   11   19 1
  19   11   28 1
  20   11   29 1
  21   12   13 1
  22   12   17 1
  23   12   18 2
  24   13   14 2
  25   13   30 1
  26   14   15 1
  27   14   31 1
  28   15   16 2
  29   15   32 1
  30   16   17 1
  31   16   33 1
  32   17   20 1
  33   18   19 1
  34   19   20 2
  35   20   34 1
  36   21   22 1
  37   21   23 1
  38   21   35 1
  39   22   36 1
  40   22   37 1
  41   22   38 1
  42   23   39 1
  43   23   40 1
  44   23   41 1

#	End of record

