#	Name: ASD01140291
#	Creating user name:	WinNT
#	Creation time:	15. 06. 2019 19:00

#	Modifying user name:	WinNT
#	Modification time:	15. 06. 2019 19:00

#	Program:	/corina/corina34_cracker 3.40 0067  02.08.2006

@<TRIPOS>MOLECULE
ASD01140291
  45   48    0    0    0
SMALL
NO_CHARGES


@<TRIPOS>ATOM
   1 C1            -1.0749     1.2640    -0.0401 C.ar    
   2 C2            -1.0720    -0.1252     0.1149 C.ar    
   3 C3             0.1376    -0.8112     0.2245 C.ar    
   4 C4             1.3279    -0.1033     0.1769 C.ar    
   5 C5             1.3212     1.2912    -0.0178 C.ar    
   6 C6             0.1109     1.9640    -0.1050 C.ar    
   7 C7             2.6390    -0.7883     0.3650 C.2     
   8 N8             3.5361    -0.6401    -0.5444 N.2     
   9 C9             3.4089     0.2638    -1.6827 C.3     
  10 C10            3.5485     1.7049    -1.2088 C.3     
  11 N11            2.5287     1.9421    -0.1574 N.pl3   
  12 C12            3.1158     2.7840     0.7507 C.2     
  13 C13            4.8550     2.0240    -0.4882 C.3     
  14 N14            4.3973     2.8469     0.6485 N.2     
  15 C15            2.9011    -1.6168     1.5669 C.ar    
  16 N16            2.0194    -1.6350     2.5585 N.ar    
  17 C17            4.0678    -2.3735     1.6430 C.ar    
  18 C18            4.2990    -3.1424     2.7721 C.ar    
  19 C19            3.3544    -3.1280     3.7870 C.ar    
  20 C20            2.2138    -2.3563     3.6418 C.ar    
  21 C21           -2.3099    -0.8436     0.1615 C.1     
  22 C22           -3.3247    -1.4325     0.1997 C.1     
  23 C23            5.5207     0.7623    -0.0023 C.2     
  24 O24            5.3257     0.3718     1.1244 O.2     
  25 O25            6.3302     0.0725    -0.8211 O.3     
  26 C26            7.0284    -1.0664    -0.2520 C.3     
  27 C27            7.9869    -1.6490    -1.2925 C.3     
  28 H28           -2.0138     1.7927    -0.1141 H       
  29 H29            0.1464    -1.8843     0.3457 H       
  30 H30            0.0979     3.0374    -0.2238 H       
  31 H31            4.1902     0.0437    -2.4102 H       
  32 H32            2.4322     0.1275    -2.1471 H       
  33 H33            3.3908     2.3885    -2.0430 H       
  34 H34            2.5547     3.3436     1.4844 H       
  35 H35            5.5244     2.5928    -1.1335 H       
  36 H36            4.7822    -2.3613     0.8331 H       
  37 H37            5.1944    -3.7398     2.8596 H       
  38 H38            3.5047    -3.7163     4.6801 H       
  39 H39            1.4761    -2.3425     4.4305 H       
  40 H40           -4.2324    -1.9593     0.2339 H       
  41 H41            7.5934    -0.7459     0.6233 H       
  42 H42            6.3046    -1.8268     0.0412 H       
  43 H43            8.5110    -2.5039    -0.8653 H       
  44 H44            7.4219    -1.9695    -2.1678 H       
  45 H45            8.7107    -0.8886    -1.5857 H       
@<TRIPOS>BOND
   1    1    2 ar
   2    1    6 ar
   3    1   28 1
   4    2    3 ar
   5    2   21 1
   6    3    4 ar
   7    3   29 1
   8    4    5 ar
   9    4    7 1
  10    5    6 ar
  11    5   11 1
  12    6   30 1
  13    7    8 2
  14    7   15 1
  15    8    9 1
  16    9   10 1
  17    9   31 1
  18    9   32 1
  19   10   11 1
  20   10   13 1
  21   10   33 1
  22   11   12 1
  23   12   14 2
  24   12   34 1
  25   13   14 1
  26   13   23 1
  27   13   35 1
  28   15   16 ar
  29   15   17 ar
  30   16   20 ar
  31   17   18 ar
  32   17   36 1
  33   18   19 ar
  34   18   37 1
  35   19   20 ar
  36   19   38 1
  37   20   39 1
  38   21   22 3
  39   22   40 1
  40   23   24 2
  41   23   25 1
  42   25   26 1
  43   26   27 1
  44   26   41 1
  45   26   42 1
  46   27   43 1
  47   27   44 1
  48   27   45 1

#	End of record

