#	Name: ASD02039060
#	Creating user name:	WinNT
#	Creation time:	15. 06. 2019 20:17

#	Modifying user name:	WinNT
#	Modification time:	15. 06. 2019 20:17

#	Program:	/corina/corina34_cracker 3.40 0067  02.08.2006

@<TRIPOS>MOLECULE
ASD02039060
  50   53    0    0    0
SMALL
NO_CHARGES


@<TRIPOS>ATOM
   1 N1             0.0026     1.2785    -0.2070 N.2     
   2 N2             0.0318    -0.0041    -0.3030 N.2     
   3 C3             1.2281     1.7343    -0.1151 C.2     
   4 O4             2.0535     0.6719    -0.1572 O.3     
   5 C5             1.2659    -0.4146    -0.2765 C.2     
   6 N6             1.6033     3.0608     0.0032 N.pl3   
   7 C7             0.6407     4.0702    -0.0872 C.ar    
   8 C8             1.7303    -1.8456    -0.3635 C.3     
   9 O9             1.9398    -2.1960    -1.7330 O.3     
  10 C10            2.3635    -3.4626    -1.9882 C.ar    
  11 C11            2.5866    -3.8692    -3.2958 C.ar    
  12 C12            2.5781    -4.3464    -0.9410 C.ar    
  13 C13            3.0151    -5.6305    -1.1999 C.ar    
  14 C14            3.2405    -6.0380    -2.5076 C.ar    
  15 C15            3.0166    -5.1553    -3.5559 C.ar    
  16 C16            0.8207     5.2669     0.5949 C.ar    
  17 C17           -0.4954     3.8811    -0.8638 C.ar    
  18 C18           -1.4446     4.8804    -0.9509 C.ar    
  19 C19           -1.2650     6.0683    -0.2660 C.ar    
  20 C20           -0.1324     6.2621     0.5035 C.ar    
  21 N21            3.6862    -7.3387    -2.7692 N.am    
  22 C22            4.1684    -7.6697    -3.9793 C.2     
  23 C23            4.3574    -6.6202    -5.0427 C.3     
  24 C24            3.2172    -5.6069    -4.9796 C.3     
  25 O25            4.4543    -8.8243    -4.2170 O.2     
  26 C26            5.6871    -5.8986    -4.8146 C.3     
  27 C27            4.3719    -7.2877    -6.4194 C.3     
  28 C28           -2.3026     7.1568    -0.3638 C.3     
  29 F29           -3.2530     6.9875     0.6488 F       
  30 F30           -1.6852     8.4039    -0.2201 F       
  31 F31           -2.9330     7.0894    -1.6110 F       
  32 H32            2.5345     3.2902     0.1488 H       
  33 H33            2.6640    -1.9587     0.1874 H       
  34 H34            0.9727    -2.5003     0.0672 H       
  35 H35            2.4235    -3.1795    -4.1107 H       
  36 H36            2.4037    -4.0302     0.0768 H       
  37 H37            3.1821    -6.3183    -0.3842 H       
  38 H38            1.7049     5.4186     1.1963 H       
  39 H39           -0.6361     2.9537    -1.3992 H       
  40 H40           -2.3279     4.7342    -1.5548 H       
  41 H41            0.0046     7.1908     1.0373 H       
  42 H42            3.6468    -8.0089    -2.0691 H       
  43 H43            2.3002    -6.0696    -5.3446 H       
  44 H44            3.4615    -4.7468    -5.6030 H       
  45 H45            6.5043    -6.6182    -4.8644 H       
  46 H46            5.8248    -5.1388    -5.5839 H       
  47 H47            5.6796    -5.4247    -3.8331 H       
  48 H48            3.4263    -7.8047    -6.5825 H       
  49 H49            4.5087    -6.5288    -7.1897 H       
  50 H50            5.1911    -8.0052    -6.4667 H       
@<TRIPOS>BOND
   1    1    2 1
   2    1    3 2
   3    2    5 2
   4    3    4 1
   5    3    6 1
   6    4    5 1
   7    5    8 1
   8    6    7 1
   9    6   32 1
  10    7   16 ar
  11    7   17 ar
  12    8    9 1
  13    8   33 1
  14    8   34 1
  15    9   10 1
  16   10   11 ar
  17   10   12 ar
  18   11   15 ar
  19   11   35 1
  20   12   13 ar
  21   12   36 1
  22   13   14 ar
  23   13   37 1
  24   14   15 ar
  25   14   21 1
  26   15   24 1
  27   16   20 ar
  28   16   38 1
  29   17   18 ar
  30   17   39 1
  31   18   19 ar
  32   18   40 1
  33   19   20 ar
  34   19   28 1
  35   20   41 1
  36   21   22 am
  37   21   42 1
  38   22   23 1
  39   22   25 2
  40   23   24 1
  41   23   26 1
  42   23   27 1
  43   24   43 1
  44   24   44 1
  45   26   45 1
  46   26   46 1
  47   26   47 1
  48   27   48 1
  49   27   49 1
  50   27   50 1
  51   28   29 1
  52   28   30 1
  53   28   31 1

#	End of record

