#	Name: ASD04880414
#	Creating user name:	WinNT
#	Creation time:	15. 06. 2019 20:53

#	Modifying user name:	WinNT
#	Modification time:	15. 06. 2019 20:53

#	Program:	/corina/corina34_cracker 3.40 0067  02.08.2006

@<TRIPOS>MOLECULE
ASD04880414
  50   52    0    0    0
SMALL
NO_CHARGES


@<TRIPOS>ATOM
   1 C1            -0.0139     1.4088    -0.2550 C.ar    
   2 C2             0.0082     0.0162    -0.2888 C.ar    
   3 C3            -1.1788    -0.7011    -0.2521 C.ar    
   4 C4            -2.3864    -0.0391    -0.1825 C.ar    
   5 C5            -2.4163     1.3575    -0.1482 C.ar    
   6 C6            -1.2203     2.0793    -0.1790 C.ar    
   7 O7             1.1517     2.1083    -0.2911 O.3     
   8 O8             1.1958    -0.6415    -0.3584 O.3     
   9 C9             1.1459    -2.0693    -0.3898 C.3     
  10 C10            1.0545     3.5335    -0.2532 C.3     
  11 C11           -3.7061     2.0674    -0.0742 C.2     
  12 C12           -5.0649     1.4057    -0.0294 C.3     
  13 N13           -3.8491     3.3473    -0.0320 N.2     
  14 N14           -5.1751     3.7700     0.0363 N.am    
  15 C15           -6.0515     2.5879     0.0433 C.3     
  16 C16           -6.9749     2.5951    -1.1766 C.3     
  17 C17           -6.8665     2.5296     1.3369 C.3     
  18 C18           -5.5875     5.0520     0.0900 C.2     
  19 O19           -6.7747     5.3112     0.0437 O.2     
  20 C20           -4.5976     6.1418     0.2050 C.ar    
  21 C21           -5.0082     7.4737     0.1168 C.ar    
  22 C22           -4.0800     8.4871     0.2254 C.ar    
  23 C23           -2.7410     8.1860     0.4214 C.ar    
  24 C24           -2.3277     6.8652     0.5098 C.ar    
  25 C25           -3.2479     5.8443     0.4084 C.ar    
  26 F26           -1.8354     9.1830     0.5262 F       
  27 C27           -4.5216     9.9248     0.1303 C.3     
  28 F28           -5.9057     9.9755    -0.0669 F       
  29 F29           -4.1946    10.5923     1.3155 F       
  30 F30           -3.8743    10.5412    -0.9459 F       
  31 H31           -1.1570    -1.7805    -0.2786 H       
  32 H32           -3.3090    -0.5999    -0.1547 H       
  33 H33           -1.2387     3.1589    -0.1527 H       
  34 H34            0.6607    -2.4358     0.5148 H       
  35 H35            0.5797    -2.3940    -1.2628 H       
  36 H36            2.1592    -2.4672    -0.4453 H       
  37 H37            2.0540     3.9670    -0.2881 H       
  38 H38            0.4775     3.8813    -1.1100 H       
  39 H39            0.5578     3.8394     0.6676 H       
  40 H40           -5.2352     0.8206    -0.9332 H       
  41 H41           -5.1552     0.7773     0.8567 H       
  42 H42           -6.3749     2.6105    -2.0864 H       
  43 H43           -7.5970     1.7001    -1.1667 H       
  44 H44           -7.6108     3.4798    -1.1457 H       
  45 H45           -7.5007     3.4133     1.4069 H       
  46 H46           -7.4890     1.6349     1.3340 H       
  47 H47           -6.1903     2.4990     2.1912 H       
  48 H48           -6.0510     7.7093    -0.0366 H       
  49 H49           -1.2833     6.6363     0.6621 H       
  50 H50           -2.9251     4.8160     0.4777 H       
@<TRIPOS>BOND
   1    1    2 ar
   2    1    7 1
   3    1    6 ar
   4    2    3 ar
   5    2    8 1
   6    3    4 ar
   7    3   31 1
   8    4    5 ar
   9    4   32 1
  10    5    6 ar
  11    5   11 1
  12    6   33 1
  13    7   10 1
  14    8    9 1
  15    9   34 1
  16    9   35 1
  17    9   36 1
  18   10   37 1
  19   10   38 1
  20   10   39 1
  21   11   12 1
  22   11   13 2
  23   12   15 1
  24   12   40 1
  25   12   41 1
  26   13   14 1
  27   14   15 1
  28   14   18 am
  29   15   16 1
  30   15   17 1
  31   16   42 1
  32   16   43 1
  33   16   44 1
  34   17   45 1
  35   17   46 1
  36   17   47 1
  37   18   19 2
  38   18   20 1
  39   20   21 ar
  40   20   25 ar
  41   21   22 ar
  42   21   48 1
  43   22   23 ar
  44   22   27 1
  45   23   24 ar
  46   23   26 1
  47   24   25 ar
  48   24   49 1
  49   25   50 1
  50   27   28 1
  51   27   29 1
  52   27   30 1

#	End of record

