#	Name: ASD03731417
#	Creating user name:	WinNT
#	Creation time:	15. 06. 2019 20:45

#	Modifying user name:	WinNT
#	Modification time:	15. 06. 2019 20:45

#	Program:	/corina/corina34_cracker 3.40 0067  02.08.2006

@<TRIPOS>MOLECULE
ASD03731417
  55   59    0    0    0
SMALL
NO_CHARGES


@<TRIPOS>ATOM
   1 O1            -2.1367     1.6606     0.7219 O.3     
   2 C2            -2.4608     0.2633     0.8470 C.3     
   3 O3            -1.2915    -0.4063     0.3403 O.3     
   4 C4            -0.2542     0.4552     0.5567 C.ar    
   5 C5            -0.7744     1.7261     0.7903 C.ar    
   6 C6             1.1143     0.2540     0.5744 C.ar    
   7 C7             1.9797     1.3151     0.8228 C.ar    
   8 C8             1.4486     2.5817     1.0465 C.ar    
   9 C9             0.0843     2.7843     1.0357 C.ar    
  10 O10            3.3412     1.3296     0.9006 O.3     
  11 C11            2.6181     3.5068     1.2523 C.3     
  12 C12            3.8113     2.6830     0.7493 C.3     
  13 N13            2.5319     5.7859     1.4020 N.am    
  14 C14            2.4659     4.7931     0.4926 C.2     
  15 C15            2.7813     3.9096     2.6879 C.ar    
  16 C16            2.9617     3.2070     3.8584 C.ar    
  17 C17            3.0835     3.8819     5.0599 C.ar    
  18 C18            3.0234     5.2634     5.0823 C.ar    
  19 C19            2.8420     5.9717     3.9128 C.ar    
  20 C20            2.7187     5.3007     2.6986 C.ar    
  21 O21            2.3138     4.9148    -0.7045 O.2     
  22 C22            2.4215     7.2084     1.0692 C.3     
  23 C23            0.9535     7.6346     1.1332 C.3     
  24 C24            0.8382     9.1202     0.7856 C.3     
  25 N25           -0.5713     9.5294     0.8470 N.3     
  26 C26           -1.0827     9.4515     2.2219 C.3     
  27 C27           -2.6122     9.4854     2.1999 C.3     
  28 C28           -0.7525    10.8781     0.2937 C.3     
  29 C29           -0.7010    10.8137    -1.2341 C.3     
  30 H30           -2.6296     0.0014     1.8916 H       
  31 H31           -3.3346     0.0174     0.2436 H       
  32 H32            1.5137    -0.7332     0.3945 H       
  33 H33           -0.3153     3.7709     1.2187 H       
  34 H34            4.6913     2.8586     1.3681 H       
  35 H35            4.0217     2.9051    -0.2968 H       
  36 H36            3.0079     2.1281     3.8384 H       
  37 H37            3.2247     3.3312     5.9782 H       
  38 H38            3.1188     5.7902     6.0203 H       
  39 H39            2.7953     7.0504     3.9386 H       
  40 H40            3.0014     7.7944     1.7822 H       
  41 H41            2.8053     7.3770     0.0630 H       
  42 H42            0.3736     7.0486     0.4202 H       
  43 H43            0.5697     7.4660     2.1394 H       
  44 H44            1.4181     9.7062     1.4986 H       
  45 H45            1.2220     9.2888    -0.2205 H       
  46 H46           -0.7465     8.5226     2.6825 H       
  47 H47           -0.7088    10.2984     2.7973 H       
  48 H48           -2.9944     9.2927     3.2023 H       
  49 H49           -2.9491    10.4664     1.8650 H       
  50 H50           -2.9827     8.7212     1.5166 H       
  51 H51           -1.7184    11.2732     0.6083 H       
  52 H52            0.0424    11.5296     0.6568 H       
  53 H53            0.2621    10.4116    -1.5486 H       
  54 H54           -1.5005    10.1680    -1.5976 H       
  55 H55           -0.8280    11.8154    -1.6445 H       
@<TRIPOS>BOND
   1    1    2 1
   2    1    5 1
   3    2    3 1
   4    2   30 1
   5    2   31 1
   6    3    4 1
   7    4    5 ar
   8    4    6 ar
   9    5    9 ar
  10    6    7 ar
  11    6   32 1
  12    7    8 ar
  13    7   10 1
  14    8    9 ar
  15    8   11 1
  16    9   33 1
  17   10   12 1
  18   11   12 1
  19   11   14 1
  20   11   15 1
  21   12   34 1
  22   12   35 1
  23   13   14 am
  24   13   20 1
  25   13   22 1
  26   14   21 2
  27   15   16 ar
  28   15   20 ar
  29   16   17 ar
  30   16   36 1
  31   17   18 ar
  32   17   37 1
  33   18   19 ar
  34   18   38 1
  35   19   20 ar
  36   19   39 1
  37   22   23 1
  38   22   40 1
  39   22   41 1
  40   23   24 1
  41   23   42 1
  42   23   43 1
  43   24   25 1
  44   24   44 1
  45   24   45 1
  46   25   26 1
  47   25   28 1
  48   26   27 1
  49   26   46 1
  50   26   47 1
  51   27   48 1
  52   27   49 1
  53   27   50 1
  54   28   29 1
  55   28   51 1
  56   28   52 1
  57   29   53 1
  58   29   54 1
  59   29   55 1

#	End of record

