#	Name: ASD03730813
#	Creating user name:	WinNT
#	Creation time:	15. 06. 2019 20:44

#	Modifying user name:	WinNT
#	Modification time:	15. 06. 2019 20:44

#	Program:	/corina/corina34_cracker 3.40 0067  02.08.2006

@<TRIPOS>MOLECULE
ASD03730813
  72   78    0    0    0
SMALL
NO_CHARGES


@<TRIPOS>ATOM
   1 O1            -1.9833    -0.3736     0.3123 O.3     
   2 C2            -1.3309    -1.6545     0.2246 C.3     
   3 C3            -0.0099    -1.3099    -0.4767 C.3     
   4 C4             0.1822     0.1472    -0.1516 C.ar    
   5 C5            -1.0459     0.6128     0.3207 C.ar    
   6 C6            -1.1586     1.9456     0.7172 C.ar    
   7 C7            -0.0785     2.7923     0.6338 C.ar    
   8 C8             1.1444     2.3235     0.1520 C.ar    
   9 C9             1.2633     0.9889    -0.2412 C.ar    
  10 N10            1.6229    -2.8017    -1.0536 N.am    
  11 C11            1.1245    -2.1586     0.0211 C.2     
  12 C12           -0.0768    -1.5618    -1.9537 C.ar    
  13 C13           -0.8868    -1.0922    -2.9635 C.ar    
  14 C14           -0.6950    -1.5247    -4.2636 C.ar    
  15 C15            0.3119    -2.4295    -4.5467 C.ar    
  16 C16            1.1257    -2.9032    -3.5388 C.ar    
  17 C17            0.9401    -2.4730    -2.2272 C.ar    
  18 O18            1.5157    -2.2478     1.1657 O.2     
  19 O19            2.4314     4.6787     0.4084 O.3     
  20 B20            2.3775     3.2900     0.0519 Du      
  21 O21            3.6976     2.9779    -0.4156 O.3     
  22 C22            4.5793     3.6921     0.4761 C.3     
  23 C23            3.7208     4.8452     1.0348 C.3     
  24 C24            4.3288     6.1962     0.6524 C.3     
  25 C25            3.5942     4.7275     2.5550 C.3     
  26 C26            5.0461     2.7772     1.6101 C.3     
  27 C27            5.7807     4.2459    -0.2925 C.3     
  28 C28            2.7496    -3.7364    -0.9975 C.3     
  29 C29            3.8930    -3.1947    -1.8162 C.ar    
  30 C30            4.6868    -4.0563    -2.5499 C.ar    
  31 C31            5.7356    -3.5595    -3.3008 C.ar    
  32 C32            5.9904    -2.2009    -3.3184 C.ar    
  33 C33            5.1961    -1.3392    -2.5853 C.ar    
  34 C34            4.1445    -1.8356    -1.8379 C.ar    
  35 C35            3.1917    -3.9048     0.4333 C.ar    
  36 C36            2.9374    -5.0885     1.1006 C.ar    
  37 C37            3.3429    -5.2429     2.4130 C.ar    
  38 C38            4.0033    -4.2140     3.0581 C.ar    
  39 C39            4.2584    -3.0307     2.3905 C.ar    
  40 C40            3.8567    -2.8778     1.0767 C.ar    
  41 H41           -1.1463    -2.0634     1.2179 H       
  42 H42           -1.9189    -2.3476    -0.3771 H       
  43 H43           -2.1015     2.3152     1.0923 H       
  44 H44           -0.1767     3.8226     0.9423 H       
  45 H45            2.2064     0.6184    -0.6150 H       
  46 H46           -1.6727    -0.3858    -2.7403 H       
  47 H47           -1.3300    -1.1562    -5.0558 H       
  48 H48            0.4614    -2.7672    -5.5616 H       
  49 H49            1.9095    -3.6101    -3.7675 H       
  50 H50            3.6807     6.9989     1.0041 H       
  51 H51            5.3121     6.2953     1.1121 H       
  52 H52            4.4267     6.2568    -0.4315 H       
  53 H53            3.1750     3.7542     2.8104 H       
  54 H54            4.5791     4.8297     3.0107 H       
  55 H55            2.9383     5.5145     2.9270 H       
  56 H56            5.6016     1.9369     1.1937 H       
  57 H57            5.6895     3.3381     2.2880 H       
  58 H58            4.1796     2.4048     2.1566 H       
  59 H59            5.4313     4.9073    -1.0853 H       
  60 H60            6.4226     4.8036     0.3894 H       
  61 H61            6.3441     3.4213    -0.7292 H       
  62 H62            2.4410    -4.7019    -1.3985 H       
  63 H63            4.4877    -5.1178    -2.5362 H       
  64 H64            6.3562    -4.2327    -3.8735 H       
  65 H65            6.8103    -1.8128    -3.9045 H       
  66 H66            5.3953    -0.2778    -2.5988 H       
  67 H67            3.5216    -1.1620    -1.2681 H       
  68 H68            2.4215    -5.8924     0.5966 H       
  69 H69            3.1436    -6.1674     2.9346 H       
  70 H70            4.3195    -4.3344     4.0837 H       
  71 H71            4.7740    -2.2266     2.8946 H       
  72 H72            4.0593    -1.9547     0.5540 H       
@<TRIPOS>BOND
   1    1    2 1
   2    1    5 1
   3    2    3 1
   4    2   41 1
   5    2   42 1
   6    3    4 1
   7    3   11 1
   8    3   12 1
   9    4    5 ar
  10    4    9 ar
  11    5    6 ar
  12    6    7 ar
  13    6   43 1
  14    7    8 ar
  15    7   44 1
  16    8    9 ar
  17    8   20 1
  18    9   45 1
  19   10   11 am
  20   10   17 1
  21   10   28 1
  22   11   18 2
  23   12   13 ar
  24   12   17 ar
  25   13   14 ar
  26   13   46 1
  27   14   15 ar
  28   14   47 1
  29   15   16 ar
  30   15   48 1
  31   16   17 ar
  32   16   49 1
  33   19   20 1
  34   19   23 1
  35   20   21 1
  36   21   22 1
  37   22   23 1
  38   22   26 1
  39   22   27 1
  40   23   24 1
  41   23   25 1
  42   24   50 1
  43   24   51 1
  44   24   52 1
  45   25   53 1
  46   25   54 1
  47   25   55 1
  48   26   56 1
  49   26   57 1
  50   26   58 1
  51   27   59 1
  52   27   60 1
  53   27   61 1
  54   28   29 1
  55   28   35 1
  56   28   62 1
  57   29   30 ar
  58   29   34 ar
  59   30   31 ar
  60   30   63 1
  61   31   32 ar
  62   31   64 1
  63   32   33 ar
  64   32   65 1
  65   33   34 ar
  66   33   66 1
  67   34   67 1
  68   35   36 ar
  69   35   40 ar
  70   36   37 ar
  71   36   68 1
  72   37   38 ar
  73   37   69 1
  74   38   39 ar
  75   38   70 1
  76   39   40 ar
  77   39   71 1
  78   40   72 1

#	End of record

