#	Name: ASD02039014
#	Creating user name:	WinNT
#	Creation time:	15. 06. 2019 20:17

#	Modifying user name:	WinNT
#	Modification time:	15. 06. 2019 20:17

#	Program:	/corina/corina34_cracker 3.40 0067  02.08.2006

@<TRIPOS>MOLECULE
ASD02039014
  39   42    0    0    0
SMALL
NO_CHARGES


@<TRIPOS>ATOM
   1 N1            -0.0167     1.2911     0.1657 N.2     
   2 N2            -0.0038     0.0049     0.1919 N.2     
   3 C3             1.2122     1.7350     0.0614 C.2     
   4 O4             2.0226     0.6610     0.0215 O.3     
   5 C5             1.2228    -0.4199     0.1062 C.2     
   6 N6             1.6034     3.0605     0.0025 N.pl3   
   7 C7             0.6394     4.0713    -0.0888 C.ar    
   8 C8             1.6682    -1.8596     0.1022 C.3     
   9 O9             1.7052    -2.3430    -1.2420 O.3     
  10 C10            2.0898    -3.6344    -1.4232 C.ar    
  11 C11            2.1464    -4.1620    -2.6978 C.ar    
  12 C12            2.4303    -4.4168    -0.3226 C.ar    
  13 C13            2.8223    -5.7272    -0.4871 C.ar    
  14 C14            2.8807    -6.2801    -1.7618 C.ar    
  15 C15            2.5428    -5.4910    -2.8776 C.ar    
  16 C16            1.0174     5.4059     0.0125 C.ar    
  17 C17           -0.6952     3.7439    -0.2864 C.ar    
  18 C18           -1.6448     4.7432    -0.3761 C.ar    
  19 C19           -1.2677     6.0705    -0.2698 C.ar    
  20 C20            0.0622     6.4017    -0.0781 C.ar    
  21 N21            3.2705    -7.5910    -1.9474 N.am    
  22 C22            3.3273    -8.1279    -3.1787 C.2     
  23 C23            2.9940    -7.3808    -4.3287 C.2     
  24 O24            3.6760    -9.2890    -3.3050 O.2     
  25 C25            2.6082    -6.0860    -4.2138 C.2     
  26 F26            2.3158     5.7289     0.1997 F       
  27 Cl27          -2.4644     7.3228    -0.3844 Cl      
  28 H28            2.5457     3.2895     0.0244 H       
  29 H29            2.6626    -1.9335     0.5424 H       
  30 H30            0.9676    -2.4582     0.6844 H       
  31 H31            1.8858    -3.5524    -3.5504 H       
  32 H32            2.3870    -3.9921     0.6695 H       
  33 H33            3.0845    -6.3248     0.3735 H       
  34 H34           -0.9909     2.7086    -0.3703 H       
  35 H35           -2.6829     4.4883    -0.5298 H       
  36 H36            0.3536     7.4383     0.0049 H       
  37 H37            3.5072    -8.1328    -1.1784 H       
  38 H38            3.0505    -7.8409    -5.3041 H       
  39 H39            2.3510    -5.5073    -5.0887 H       
@<TRIPOS>BOND
   1    1    2 1
   2    1    3 2
   3    2    5 2
   4    3    4 1
   5    3    6 1
   6    4    5 1
   7    5    8 1
   8    6    7 1
   9    6   28 1
  10    7   16 ar
  11    7   17 ar
  12    8    9 1
  13    8   29 1
  14    8   30 1
  15    9   10 1
  16   10   11 ar
  17   10   12 ar
  18   11   15 ar
  19   11   31 1
  20   12   13 ar
  21   12   32 1
  22   13   14 ar
  23   13   33 1
  24   14   15 ar
  25   14   21 1
  26   15   25 1
  27   16   26 1
  28   16   20 ar
  29   17   18 ar
  30   17   34 1
  31   18   19 ar
  32   18   35 1
  33   19   20 ar
  34   19   27 1
  35   20   36 1
  36   21   22 am
  37   21   37 1
  38   22   23 1
  39   22   24 2
  40   23   25 2
  41   23   38 1
  42   25   39 1

#	End of record

