#	Name: ASD01914153
#	Creating user name:	WinNT
#	Creation time:	15. 06. 2019 20:02

#	Modifying user name:	WinNT
#	Modification time:	15. 06. 2019 20:02

#	Program:	/corina/corina34_cracker 3.40 0067  02.08.2006

@<TRIPOS>MOLECULE
ASD01914153
  53   57    0    0    0
SMALL
NO_CHARGES


@<TRIPOS>ATOM
   1 C1            -0.8296     1.6251    -0.1869 C.2     
   2 C2            -0.6704     0.1652    -0.1788 C.2     
   3 N3            -1.6388    -0.7370    -0.1143 N.2     
   4 C4            -1.0218    -1.9276    -0.1349 C.2     
   5 N5             0.2582    -1.7083    -0.2088 N.2     
   6 O6             0.4854    -0.5174    -0.2412 O.3     
   7 C7            -1.6911    -3.2768    -0.0819 C.3     
   8 C8            -1.3425    -4.0698    -1.3435 C.3     
   9 C9            -2.0481    -5.4274    -1.3060 C.3     
  10 C10           -1.5609    -6.2181    -0.0878 C.3     
  11 N11           -1.7601    -5.4010     1.1169 N.am    
  12 C12           -1.1999    -4.0432     1.1502 C.3     
  13 C13           -0.0742    -6.5421    -0.2477 C.3     
  14 C14           -2.4438    -5.8878     2.1715 C.2     
  15 C15           -2.5253    -5.1050     3.4267 C.ar    
  16 O16           -2.9933    -6.9688     2.0928 O.2     
  17 C17            0.1856     2.5538    -0.2543 C.2     
  18 C18           -0.4121     3.8206    -0.2357 C.2     
  19 C19           -1.7523     3.6453    -0.1589 C.2     
  20 N20           -2.0192     2.3125    -0.1346 N.pl3   
  21 Cl21           0.4179     5.3440    -0.2991 Cl      
  22 C22           -3.7190    -5.0349     4.1528 C.ar    
  23 C23           -3.7563    -4.2945     5.3194 C.ar    
  24 N24           -2.6888    -3.6574     5.7535 N.ar    
  25 C25           -1.5356    -3.6944     5.0997 C.ar    
  26 C26           -1.4113    -4.4226     3.9192 C.ar    
  27 C27           -0.3643    -2.9576     5.6347 C.ar    
  28 C28            0.8250    -2.8979     4.9116 C.ar    
  29 N29            1.8658    -2.2439     5.3856 N.ar    
  30 C30            1.8278    -1.6249     6.5497 C.ar    
  31 C31            0.6837    -1.6373     7.3269 C.ar    
  32 C32           -0.4381    -2.3070     6.8698 C.ar    
  33 H33           -2.7714    -3.1449    -0.0220 H       
  34 H34           -1.6691    -3.5150    -2.2230 H       
  35 H35           -0.2642    -4.2222    -1.3903 H       
  36 H36           -3.1251    -5.2757    -1.2343 H       
  37 H37           -1.8181    -5.9822    -2.2157 H       
  38 H38           -2.1312    -7.1429    -0.0005 H       
  39 H39           -0.1112    -4.0967     1.1372 H       
  40 H40           -1.5320    -3.5330     2.0543 H       
  41 H41            0.4932    -5.6149    -0.3283 H       
  42 H42            0.2705    -7.1047     0.6199 H       
  43 H43            0.0731    -7.1376    -1.1488 H       
  44 H44            1.2437     2.3446    -0.3103 H       
  45 H45           -2.4887     4.4346    -0.1270 H       
  46 H46           -2.9016     1.9131    -0.0823 H       
  47 H47           -4.6010    -5.5528     3.8059 H       
  48 H48           -4.6755    -4.2372     5.8835 H       
  49 H49           -0.4710    -4.4516     3.3886 H       
  50 H50            0.8945    -3.3925     3.9541 H       
  51 H51            2.7038    -1.1004     6.9016 H       
  52 H52            0.6647    -1.1270     8.2786 H       
  53 H53           -1.3447    -2.3329     7.4560 H       
@<TRIPOS>BOND
   1    1    2 1
   2    1   17 2
   3    1   20 1
   4    2    3 2
   5    2    6 1
   6    3    4 1
   7    4    5 2
   8    4    7 1
   9    5    6 1
  10    7    8 1
  11    7   12 1
  12    7   33 1
  13    8    9 1
  14    8   34 1
  15    8   35 1
  16    9   10 1
  17    9   36 1
  18    9   37 1
  19   10   11 1
  20   10   13 1
  21   10   38 1
  22   11   12 1
  23   11   14 am
  24   12   39 1
  25   12   40 1
  26   13   41 1
  27   13   42 1
  28   13   43 1
  29   14   15 1
  30   14   16 2
  31   15   22 ar
  32   15   26 ar
  33   17   18 1
  34   17   44 1
  35   18   19 2
  36   18   21 1
  37   19   20 1
  38   19   45 1
  39   20   46 1
  40   22   23 ar
  41   22   47 1
  42   23   24 ar
  43   23   48 1
  44   24   25 ar
  45   25   26 ar
  46   25   27 1
  47   26   49 1
  48   27   28 ar
  49   27   32 ar
  50   28   29 ar
  51   28   50 1
  52   29   30 ar
  53   30   31 ar
  54   30   51 1
  55   31   32 ar
  56   31   52 1
  57   32   53 1

#	End of record

