#	Name: ASD00960227
#	Creating user name:	WinNT
#	Creation time:	15. 06. 2019 18:53

#	Modifying user name:	WinNT
#	Modification time:	15. 06. 2019 18:53

#	Program:	/corina/corina34_cracker 3.40 0067  02.08.2006

@<TRIPOS>MOLECULE
ASD00960227
  33   35    0    0    0
SMALL
NO_CHARGES


@<TRIPOS>ATOM
   1 C1             0.4295     1.5497    -0.8648 C.2     
   2 C2             0.6349     0.2827    -1.2869 C.2     
   3 N3             1.3265     1.8555     0.1064 N.pl3   
   4 C4             2.1332     0.7685     0.3235 C.2     
   5 C5             1.7173    -0.2462    -0.5475 C.2     
   6 N6             1.5499     3.0121     0.8680 N.2     
   7 C7             2.5070     3.0353     1.7573 C.2     
   8 N8             3.2951     1.9874     1.9762 N.2     
   9 C9             3.1481     0.8600     1.3003 C.2     
  10 N10            3.9796    -0.2154     1.5463 N.pl3   
  11 C11            2.2908    -1.5911    -0.6683 C.2     
  12 O12            3.4928    -1.7516    -0.5646 O.2     
  13 N13            1.4867    -2.6488    -0.8941 N.am    
  14 C14            2.0594    -3.9918    -1.0147 C.3     
  15 C15            0.9562    -4.9879    -1.2633 C.ar    
  16 C16            0.5732    -5.2863    -2.5576 C.ar    
  17 C17            0.3312    -5.6074    -0.1973 C.ar    
  18 C18           -0.6808    -6.5211    -0.4253 C.ar    
  19 C19           -1.0680    -6.8150    -1.7194 C.ar    
  20 C20           -0.4388    -6.2000    -2.7856 C.ar    
  21 H21           -0.3289     2.2179    -1.2452 H       
  22 H22            0.0728    -0.2333    -2.0513 H       
  23 H23            2.6630     3.9355     2.3332 H       
  24 H24            4.8326    -0.0780     1.9874 H       
  25 H25            3.7106    -1.1079     1.2781 H       
  26 H26            0.5287    -2.5209    -0.9767 H       
  27 H27            2.7629    -4.0134    -1.8470 H       
  28 H28            2.5800    -4.2490    -0.0922 H       
  29 H29            1.0644    -4.8054    -3.3906 H       
  30 H30            0.6337    -5.3778     0.8138 H       
  31 H31           -1.1687    -7.0056     0.4075 H       
  32 H32           -1.8583    -7.5291    -1.8976 H       
  33 H33           -0.7412    -6.4296    -3.7967 H       
@<TRIPOS>BOND
   1    1    2 2
   2    1    3 1
   3    1   21 1
   4    2    5 1
   5    2   22 1
   6    3    4 1
   7    3    6 1
   8    4    5 2
   9    4    9 1
  10    5   11 1
  11    6    7 2
  12    7    8 1
  13    7   23 1
  14    8    9 2
  15    9   10 1
  16   10   24 1
  17   10   25 1
  18   11   12 2
  19   11   13 am
  20   13   14 1
  21   13   26 1
  22   14   15 1
  23   14   27 1
  24   14   28 1
  25   15   16 ar
  26   15   17 ar
  27   16   20 ar
  28   16   29 1
  29   17   18 ar
  30   17   30 1
  31   18   19 ar
  32   18   31 1
  33   19   20 ar
  34   19   32 1
  35   20   33 1

#	End of record

