#	Name: ASD04560168
#	Creating user name:	WinNT
#	Creation time:	15. 06. 2019 20:49

#	Modifying user name:	WinNT
#	Modification time:	15. 06. 2019 20:49

#	Program:	/corina/corina34_cracker 3.40 0067  02.08.2006

@<TRIPOS>MOLECULE
ASD04560168
  47   49    0    0    0
SMALL
NO_CHARGES


@<TRIPOS>ATOM
   1 C1            -0.1430     1.5489     0.3292 C.ar    
   2 C2            -0.1603     0.1783     0.3510 C.ar    
   3 C3             1.0273    -0.5369     0.2146 C.ar    
   4 C4             2.2356     0.1379     0.0554 C.ar    
   5 C5             2.2590     1.5084     0.0325 C.ar    
   6 C6             1.0685     2.2291     0.1695 C.ar    
   7 C7             1.0903     3.7032     0.1448 C.2     
   8 O8             2.1444     4.2935     0.0051 O.2     
   9 N9            -0.0579     4.3965     0.2770 N.am    
  10 C10           -0.0257     5.7930     0.3692 C.ar    
  11 C11           -1.0481     6.5499    -0.1927 C.ar    
  12 C12            1.0497     7.8121     1.1153 C.ar    
  13 C13            1.0213     6.4188     1.0249 C.ar    
  14 S14            1.0012    -2.2984     0.2442 S.3     
  15 C15           -1.0229     7.9281    -0.1056 C.ar    
  16 C16            0.0200     8.5654     0.5422 C.ar    
  17 C17            2.7491    -2.7360     0.0344 C.3     
  18 C18            2.8955    -4.2359     0.0388 C.ar    
  19 C19            2.7186    -4.9580    -1.1401 C.ar    
  20 C20            3.2105    -4.8963     1.2088 C.ar    
  21 C21            2.8560    -6.3453    -1.1289 C.ar    
  22 C22            3.1659    -6.9957     0.0475 C.ar    
  23 C23            3.3456    -6.2731     1.2141 C.ar    
  24 B24            2.3655    -4.2119    -2.4756 Du      
  25 O25            2.6863    -4.8039    -3.7258 O.3     
  26 O26            1.7252    -2.9452    -2.4333 O.3     
  27 F27            0.0413     9.9137     0.6255 F       
  28 C28            2.1616     8.4868     1.8127 C.2     
  29 O29            2.1839     9.6991     1.8899 O.2     
  30 O30            3.1521     7.7585     2.3638 O.3     
  31 H31           -1.0645     2.1028     0.4308 H       
  32 H32           -1.0956    -0.3475     0.4742 H       
  33 H33            3.1548    -0.4192    -0.0496 H       
  34 H34            3.1961     2.0310    -0.0906 H       
  35 H35           -0.9066     3.9278     0.3082 H       
  36 H36           -1.8650     6.0580    -0.6997 H       
  37 H37            1.8132     5.8312     1.4654 H       
  38 H38           -1.8197     8.5099    -0.5448 H       
  39 H39            3.1120    -2.3383    -0.9133 H       
  40 H40            3.3306    -2.3118     0.8530 H       
  41 H41            3.3521    -4.3373     2.1219 H       
  42 H42            2.7197    -6.9097    -2.0395 H       
  43 H43            3.2726    -8.0704     0.0573 H       
  44 H44            3.5881    -6.7864     2.1328 H       
  45 H45            2.4305    -4.2705    -4.4907 H       
  46 H46            1.5484    -2.5646    -3.3045 H       
  47 H47            3.8587     8.2449     2.8101 H       
@<TRIPOS>BOND
   1    1    2 ar
   2    1    6 ar
   3    1   31 1
   4    2    3 ar
   5    2   32 1
   6    3    4 ar
   7    3   14 1
   8    4    5 ar
   9    4   33 1
  10    5    6 ar
  11    5   34 1
  12    6    7 1
  13    7    8 2
  14    7    9 am
  15    9   10 1
  16    9   35 1
  17   10   11 ar
  18   10   13 ar
  19   11   15 ar
  20   11   36 1
  21   12   13 ar
  22   12   28 1
  23   12   16 ar
  24   13   37 1
  25   14   17 1
  26   15   16 ar
  27   15   38 1
  28   16   27 1
  29   17   18 1
  30   17   39 1
  31   17   40 1
  32   18   19 ar
  33   18   20 ar
  34   19   24 1
  35   19   21 ar
  36   20   23 ar
  37   20   41 1
  38   21   22 ar
  39   21   42 1
  40   22   23 ar
  41   22   43 1
  42   23   44 1
  43   24   25 1
  44   24   26 1
  45   25   45 1
  46   26   46 1
  47   28   29 2
  48   28   30 1
  49   30   47 1

#	End of record

