#	Name: ASD01120287
#	Creating user name:	WinNT
#	Creation time:	15. 06. 2019 18:59

#	Modifying user name:	WinNT
#	Modification time:	15. 06. 2019 18:59

#	Program:	/corina/corina34_cracker 3.40 0067  02.08.2006

@<TRIPOS>MOLECULE
ASD01120287
  51   53    0    0    0
SMALL
NO_CHARGES


@<TRIPOS>ATOM
   1 C1             0.3279     1.2582    -0.6220 C.3     
   2 C2             0.0739    -0.2246    -0.3432 C.3     
   3 O3             0.9761    -0.6828     0.6981 O.3     
   4 C4             0.8810    -1.9773     1.0648 C.2     
   5 O5             0.0658    -2.7028     0.5284 O.2     
   6 C6             1.7608    -2.5099     2.1107 C.2     
   7 N7             2.7242    -1.7890     2.7939 N.pl3   
   8 C8             3.3439    -2.6234     3.6944 C.ar    
   9 C9             2.7510    -3.8943     3.5679 C.ar    
  10 C10            1.7569    -3.7911     2.5694 C.2     
  11 C11            3.1982    -4.9546     4.3796 C.ar    
  12 C12            4.2147    -4.7339     5.2912 C.ar    
  13 C13            4.7914    -3.4780     5.4080 C.ar    
  14 C14            4.3649    -2.4307     4.6208 C.ar    
  15 N15            4.9936    -1.0976     4.7606 N.pl3   
  16 O16            5.8869    -0.9276     5.5709 O.2     
  17 O17            4.6175    -0.1709     4.0654 O.2     
  18 N18            2.6209    -6.2161     4.2655 N.pl3   
  19 C19            3.1694    -7.3015     4.9571 C.ar    
  20 C20            2.3362    -8.2094     5.5971 C.ar    
  21 C21            2.8790    -9.2849     6.2824 C.ar    
  22 O22            2.0628   -10.1739     6.9091 O.3     
  23 C23            0.6562    -9.9378     6.8200 C.3     
  24 C24            4.2576    -9.4549     6.3285 C.ar    
  25 C25            5.0910    -8.5461     5.6873 C.ar    
  26 C26            4.5467    -7.4737     4.9983 C.ar    
  27 O27            6.4401    -8.7115     5.7324 O.3     
  28 C28            7.2359    -7.7395     5.0512 C.3     
  29 O29            4.7915   -10.5111     7.0020 O.3     
  30 C30            4.9948   -11.7166     6.2620 C.3     
  31 H31            1.3589     1.3951    -0.9483 H       
  32 H32           -0.3494     1.6021    -1.4036 H       
  33 H33            0.1553     1.8336     0.2875 H       
  34 H34           -0.9570    -0.3615    -0.0168 H       
  35 H35            0.2466    -0.8001    -1.2526 H       
  36 H36            2.9289    -0.8504     2.6595 H       
  37 H37            1.1133    -4.5879     2.2270 H       
  38 H38            4.5610    -5.5440     5.9158 H       
  39 H39            5.5839    -3.3191     6.1244 H       
  40 H40            1.8383    -6.3426     3.7066 H       
  41 H41            1.2649    -8.0772     5.5612 H       
  42 H42            0.3517    -9.9480     5.7735 H       
  43 H43            0.1218   -10.7183     7.3616 H       
  44 H44            0.4224    -8.9670     7.2570 H       
  45 H45            5.1942    -6.7676     4.4997 H       
  46 H46            8.2908    -7.9888     5.1658 H       
  47 H47            6.9766    -7.7350     3.9925 H       
  48 H48            7.0474    -6.7534     5.4757 H       
  49 H49            5.4242   -12.4760     6.9154 H       
  50 H50            4.0397   -12.0697     5.8732 H       
  51 H51            5.6755   -11.5236     5.4329 H       
@<TRIPOS>BOND
   1    1    2 1
   2    1   31 1
   3    1   32 1
   4    1   33 1
   5    2    3 1
   6    2   34 1
   7    2   35 1
   8    3    4 1
   9    4    5 2
  10    4    6 1
  11    6    7 1
  12    6   10 2
  13    7    8 1
  14    7   36 1
  15    8    9 ar
  16    8   14 ar
  17    9   10 1
  18    9   11 ar
  19   10   37 1
  20   11   12 ar
  21   11   18 1
  22   12   13 ar
  23   12   38 1
  24   13   14 ar
  25   13   39 1
  26   14   15 1
  27   15   16 2
  28   15   17 2
  29   18   19 1
  30   18   40 1
  31   19   20 ar
  32   19   26 ar
  33   20   21 ar
  34   20   41 1
  35   21   22 1
  36   21   24 ar
  37   22   23 1
  38   23   42 1
  39   23   43 1
  40   23   44 1
  41   24   25 ar
  42   24   29 1
  43   25   26 ar
  44   25   27 1
  45   26   45 1
  46   27   28 1
  47   28   46 1
  48   28   47 1
  49   28   48 1
  50   29   30 1
  51   30   49 1
  52   30   50 1
  53   30   51 1

#	End of record

