#	Name: ASD01900665
#	Creating user name:	WinNT
#	Creation time:	15. 06. 2019 19:52

#	Modifying user name:	WinNT
#	Modification time:	15. 06. 2019 19:52

#	Program:	/corina/corina34_cracker 3.40 0067  02.08.2006

@<TRIPOS>MOLECULE
ASD01900665
  58   62    0    0    0
SMALL
NO_CHARGES


@<TRIPOS>ATOM
   1 C1            -1.2968     2.1874    -0.5279 C.ar    
   2 C2            -1.3333     0.8055    -0.3880 C.ar    
   3 C3            -2.5167     0.1136    -0.5465 C.ar    
   4 C4            -3.6872     0.7969    -0.8486 C.ar    
   5 C5            -3.6473     2.1904    -0.9935 C.ar    
   6 O6            -4.8530     0.1303    -0.9943 O.3     
   7 C7            -5.9268     0.7001    -1.5677 C.2     
   8 C8            -6.0336     2.0364    -1.7582 C.2     
   9 C9            -4.9117     2.8931    -1.3299 C.2     
  10 C10           -7.0367    -0.1679    -2.0091 C.ar    
  11 N11           -8.1109     0.3839    -2.5808 N.ar    
  12 C12           -9.1318    -0.3233    -2.9962 C.ar    
  13 C13           -9.1311    -1.7218    -2.8505 C.ar    
  14 C14           -8.0077    -2.3476    -2.2476 C.ar    
  15 C15           -6.9399    -1.5386    -1.8266 C.ar    
  16 C16          -10.2067    -2.5119    -3.2829 C.ar    
  17 C17          -10.1572    -3.8634    -3.1183 C.ar    
  18 C18           -9.0546    -4.4767    -2.5267 C.ar    
  19 C19           -7.9914    -3.7426    -2.0949 C.ar    
  20 C20           -2.4564     2.8844    -0.8262 C.ar    
  21 O21           -0.1241     2.8563    -0.3666 O.3     
  22 C22            1.0308     2.0748    -0.0543 C.3     
  23 C23            2.2453     2.9943     0.0887 C.3     
  24 N24            2.0553     3.8803     1.2450 N.3     
  25 C25            3.2404     4.7211     1.4646 C.3     
  26 C26            1.7300     3.1080     2.4523 C.3     
  27 C27            1.4623     4.0693     3.6128 C.3     
  28 N28            2.6474     4.9101     3.8323 N.3     
  29 C29            2.9727     5.6823     2.6251 C.3     
  30 C30            2.4574     5.7960     4.9886 C.3     
  31 N31           -5.0241     4.1967    -1.2506 N.2     
  32 O32           -3.9569     4.9691    -0.7313 O.3     
  33 H33           -0.4266     0.2677    -0.1533 H       
  34 H34           -2.5325    -0.9606    -0.4358 H       
  35 H35           -6.9160     2.4633    -2.2117 H       
  36 H36           -9.9777     0.1696    -3.4521 H       
  37 H37           -6.0666    -1.9736    -1.3635 H       
  38 H38          -11.0687    -2.0517    -3.7430 H       
  39 H39          -10.9865    -4.4696    -3.4516 H       
  40 H40           -9.0427    -5.5502    -2.4088 H       
  41 H41           -7.1431    -4.2301    -1.6376 H       
  42 H42           -2.4327     3.9585    -0.9356 H       
  43 H43            0.8665     1.5418     0.8822 H       
  44 H44            1.2109     1.3568    -0.8543 H       
  45 H45            3.1418     2.3920     0.2359 H       
  46 H46            2.3551     3.5944    -0.8146 H       
  47 H47            4.0951     4.0890     1.7057 H       
  48 H48            3.4536     5.2922     0.5610 H       
  49 H49            0.8420     2.5032     2.2688 H       
  50 H50            2.5676     2.4577     2.7046 H       
  51 H51            0.6076     4.7014     3.3716 H       
  52 H52            1.2492     3.4982     4.5163 H       
  53 H53            3.8608     6.2872     2.8086 H       
  54 H54            2.1352     6.3327     2.3727 H       
  55 H55            2.2845     5.1957     5.8818 H       
  56 H56            3.3491     6.4071     5.1286 H       
  57 H57            1.5976     6.4428     4.8135 H       
  58 H58           -4.1323     5.9198    -0.7124 H       
@<TRIPOS>BOND
   1    1    2 ar
   2    1   21 1
   3    1   20 ar
   4    2    3 ar
   5    2   33 1
   6    3    4 ar
   7    3   34 1
   8    4    5 ar
   9    4    6 1
  10    5   20 ar
  11    5    9 1
  12    6    7 1
  13    7    8 2
  14    7   10 1
  15    8    9 1
  16    8   35 1
  17    9   31 2
  18   10   11 ar
  19   10   15 ar
  20   11   12 ar
  21   12   13 ar
  22   12   36 1
  23   13   14 ar
  24   13   16 ar
  25   14   15 ar
  26   14   19 ar
  27   15   37 1
  28   16   17 ar
  29   16   38 1
  30   17   18 ar
  31   17   39 1
  32   18   19 ar
  33   18   40 1
  34   19   41 1
  35   20   42 1
  36   21   22 1
  37   22   23 1
  38   22   43 1
  39   22   44 1
  40   23   24 1
  41   23   45 1
  42   23   46 1
  43   24   25 1
  44   24   26 1
  45   25   29 1
  46   25   47 1
  47   25   48 1
  48   26   27 1
  49   26   49 1
  50   26   50 1
  51   27   28 1
  52   27   51 1
  53   27   52 1
  54   28   29 1
  55   28   30 1
  56   29   53 1
  57   29   54 1
  58   30   55 1
  59   30   56 1
  60   30   57 1
  61   31   32 1
  62   32   58 1

#	End of record

