#	Name: ASD01915948
#	Creating user name:	WinNT
#	Creation time:	15. 06. 2019 20:06

#	Modifying user name:	WinNT
#	Modification time:	15. 06. 2019 20:06

#	Program:	/corina/corina34_cracker 3.40 0067  02.08.2006

@<TRIPOS>MOLECULE
ASD01915948
  39   42    0    0    0
SMALL
NO_CHARGES


@<TRIPOS>ATOM
   1 C1            -0.0018     1.4660     0.2354 C.2     
   2 C2             0.0694     0.1211    -0.0252 C.2     
   3 C3            -1.2022    -0.6651    -0.3003 C.3     
   4 C4            -2.3582    -0.0140     0.4562 C.3     
   5 N5            -2.4035     1.4321     0.2716 N.am    
   6 C6            -1.2797     2.1860     0.2807 C.2     
   7 O7            -1.3266     3.4013     0.3251 O.2     
   8 S8             1.6206     2.0713     0.4915 S.3     
   9 C9             2.2519     0.5008     0.2412 C.2     
  10 N10            1.2958    -0.3367    -0.0056 N.2     
  11 O11            4.2931     0.2866    -0.9984 O.3     
  12 C12            5.6161     0.0004    -1.1196 C.ar    
  13 C13            6.2424     0.1187    -2.3518 C.ar    
  14 C14            6.3438    -0.4049    -0.0102 C.ar    
  15 C15            7.6886    -0.6948    -0.1360 C.ar    
  16 C16            8.3095    -0.5807    -1.3662 C.ar    
  17 C17            7.5875    -0.1723    -2.4724 C.ar    
  18 C18            3.7146     0.1427     0.3004 C.3     
  19 C19           -3.6406     2.0559     0.0803 C.ar    
  20 C20           -4.5759     2.0955     1.1061 C.ar    
  21 N21           -5.7430     2.6821     0.9293 N.ar    
  22 C22           -6.0689     3.2501    -0.2152 C.ar    
  23 C23           -5.1907     3.2515    -1.2832 C.ar    
  24 C24           -3.9506     2.6516    -1.1401 C.ar    
  25 H25           -1.4137    -0.6550    -1.3695 H       
  26 H26           -1.0766    -1.6932     0.0393 H       
  27 H27           -3.2962    -0.4437     0.1044 H       
  28 H28           -2.2503    -0.2304     1.5190 H       
  29 H29            5.6789     0.4377    -3.2162 H       
  30 H30            5.8595    -0.4935     0.9510 H       
  31 H31            8.2556    -1.0104     0.7273 H       
  32 H32            9.3610    -0.8075    -1.4624 H       
  33 H33            8.0746    -0.0843    -3.4322 H       
  34 H34            4.2230     0.8059     1.0001 H       
  35 H35            3.8228    -0.8894     0.6340 H       
  36 H36           -4.3448     1.6409     2.0581 H       
  37 H37           -7.0354     3.7205    -0.3199 H       
  38 H38           -5.4669     3.7188    -2.2169 H       
  39 H39           -3.2448     2.6381    -1.9575 H       
@<TRIPOS>BOND
   1    1    2 2
   2    1    8 1
   3    1    6 1
   4    2    3 1
   5    2   10 1
   6    3    4 1
   7    3   25 1
   8    3   26 1
   9    4    5 1
  10    4   27 1
  11    4   28 1
  12    5    6 am
  13    5   19 1
  14    6    7 2
  15    8    9 1
  16    9   10 2
  17    9   18 1
  18   11   12 1
  19   11   18 1
  20   12   13 ar
  21   12   14 ar
  22   13   17 ar
  23   13   29 1
  24   14   15 ar
  25   14   30 1
  26   15   16 ar
  27   15   31 1
  28   16   17 ar
  29   16   32 1
  30   17   33 1
  31   18   34 1
  32   18   35 1
  33   19   20 ar
  34   19   24 ar
  35   20   21 ar
  36   20   36 1
  37   21   22 ar
  38   22   23 ar
  39   22   37 1
  40   23   24 ar
  41   23   38 1
  42   24   39 1

#	End of record

