#	Name: ASD08590009
#	Creating user name:	WinNT
#	Creation time:	15. 06. 2019 21:19

#	Modifying user name:	WinNT
#	Modification time:	15. 06. 2019 21:19

#	Program:	/corina/corina34_cracker 3.40 0067  02.08.2006

@<TRIPOS>MOLECULE
ASD08590009
  48   50    0    0    0
SMALL
NO_CHARGES


@<TRIPOS>ATOM
   1 N1            -0.1878     1.6012    -0.2833 N.am    
   2 C2             0.0207     0.1458    -0.3750 C.3     
   3 C3            -1.2937    -0.4336     0.1091 C.2     
   4 N4            -2.0707     0.6260     0.4086 N.am    
   5 C5            -1.4347     1.7823     0.1882 C.2     
   6 C6            -3.3784     0.5289     0.8940 C.ar    
   7 C7            -4.4466     0.4866     0.0051 C.ar    
   8 C8            -3.6068     0.4691     2.2645 C.ar    
   9 C9            -4.8932     0.3725     2.7463 C.ar    
  10 C10           -5.9700     0.3351     1.8560 C.ar    
  11 C11           -5.7362     0.3905     0.4794 C.ar    
  12 C12            0.7296     2.5963    -0.6148 C.ar    
  13 C13            0.8597     3.0075    -1.9387 C.ar    
  14 C14            1.5083     3.1797     0.3782 C.ar    
  15 C15            2.4170     4.1658     0.0503 C.ar    
  16 C16            2.5489     4.5731    -1.2830 C.ar    
  17 C17            1.7562     3.9824    -2.2719 C.ar    
  18 C18            3.5167     5.6255    -1.6423 C.2     
  19 S19           -2.1335     3.3205     0.4648 S.2     
  20 O20           -1.5855    -1.6064     0.2059 O.2     
  21 C21            0.2914    -0.2691    -1.8225 C.3     
  22 C22            1.1697    -0.2917     0.5357 C.3     
  23 F23            3.1757     4.7360     1.0118 F       
  24 O24            4.2020     6.1413    -0.7802 O.2     
  25 C25           -6.8937     0.3505    -0.4847 C.3     
  26 F26           -6.4109     0.4189    -1.7960 F       
  27 F27           -7.6043    -0.8419    -0.3110 F       
  28 F28           -7.7403     1.4375    -0.2423 F       
  29 N29            3.6421     6.0160    -2.9261 N.am    
  30 C30            4.6038     7.0619    -3.2831 C.3     
  31 C31           -7.3092     0.2347     2.3531 C.1     
  32 N32           -8.3716     0.1550     2.7474 N.1     
  33 H33           -4.2650     0.5295    -1.0587 H       
  34 H34           -2.7743     0.4980     2.9518 H       
  35 H35           -5.0698     0.3253     3.8107 H       
  36 H36            0.2494     2.5534    -2.7053 H       
  37 H37            1.4023     2.8620     1.4049 H       
  38 H38            1.8558     4.2946    -3.3010 H       
  39 H39            1.1848     0.2392    -2.1852 H       
  40 H40            0.4428    -1.3475    -1.8691 H       
  41 H41           -0.5606     0.0054    -2.4445 H       
  42 H42            0.9339    -0.0330     1.5680 H       
  43 H43            1.3080    -1.3698     0.4538 H       
  44 H44            2.0859     0.2161     0.2341 H       
  45 H45            3.0955     5.6046    -3.6138 H       
  46 H46            4.3556     7.9805    -2.7514 H       
  47 H47            5.6082     6.7418    -3.0059 H       
  48 H48            4.5632     7.2415    -4.3574 H       
@<TRIPOS>BOND
   1    1    2 1
   2    1   12 1
   3    1    5 am
   4    2    3 1
   5    2   21 1
   6    2   22 1
   7    3    4 am
   8    3   20 2
   9    4    5 am
  10    4    6 1
  11    5   19 2
  12    6    7 ar
  13    6    8 ar
  14    7   11 ar
  15    7   33 1
  16    8    9 ar
  17    8   34 1
  18    9   10 ar
  19    9   35 1
  20   10   11 ar
  21   10   31 1
  22   11   25 1
  23   12   13 ar
  24   12   14 ar
  25   13   17 ar
  26   13   36 1
  27   14   15 ar
  28   14   37 1
  29   15   16 ar
  30   15   23 1
  31   16   17 ar
  32   16   18 1
  33   17   38 1
  34   18   24 2
  35   18   29 am
  36   21   39 1
  37   21   40 1
  38   21   41 1
  39   22   42 1
  40   22   43 1
  41   22   44 1
  42   25   26 1
  43   25   27 1
  44   25   28 1
  45   29   30 1
  46   29   45 1
  47   30   46 1
  48   30   47 1
  49   30   48 1
  50   31   32 3

#	End of record

