#	Name: ASD01028188
#	Creating user name:	WinNT
#	Creation time:	15. 06. 2019 18:56

#	Modifying user name:	WinNT
#	Modification time:	15. 06. 2019 18:56

#	Program:	/corina/corina34_cracker 3.40 0067  02.08.2006

@<TRIPOS>MOLECULE
ASD01028188
  38   41    0    0    0
SMALL
NO_CHARGES


@<TRIPOS>ATOM
   1 C1            -0.0168     1.3848     0.0097 C.ar    
   2 C2             0.0021    -0.0041     0.0020 C.ar    
   3 C3             1.2257    -0.6615    -0.0132 C.ar    
   4 C4             2.3907     0.1055    -0.0203 C.ar    
   5 C5             2.2922     1.4800    -0.0120 C.ar    
   6 N6             1.1137     2.0756     0.0026 N.ar    
   7 N7            -1.2339     2.0566     0.0191 N.pl3   
   8 O8             1.2861    -2.0177    -0.0207 O.3     
   9 C9             2.5869    -2.6090    -0.0363 C.3     
  10 C10            2.2691    -6.1872    -0.6682 C.2     
  11 C11            2.1668    -7.2498    -1.5859 C.2     
  12 C12            2.1764    -6.9781    -2.9176 C.2     
  13 C13            2.2883    -5.6452    -3.3671 C.2     
  14 N14            2.3831    -4.6521    -2.5108 N.2     
  15 N15            2.3764    -4.8991    -1.1365 N.pl3   
  16 N16            2.3974    -4.8855     1.0115 N.2     
  17 N17            2.2838    -6.1167     0.6528 N.2     
  18 C18            2.4562    -4.1103    -0.0426 C.2     
  19 C19            2.2982    -5.3611    -4.8232 C.ar    
  20 C20            2.4082    -4.0487    -5.2789 C.ar    
  21 C21            2.4169    -3.7902    -6.6346 C.ar    
  22 C22            2.3161    -4.8308    -7.5404 C.ar    
  23 C23            2.2063    -6.1353    -7.0936 C.ar    
  24 C24            2.2033    -6.4060    -5.7403 C.ar    
  25 H25           -0.9211    -0.5646     0.0082 H       
  26 H26            3.3591    -0.3725    -0.0318 H       
  27 H27            3.1913     2.0783    -0.0174 H       
  28 H28           -2.0644     1.5555     0.0203 H       
  29 H29           -1.2525     3.0264     0.0244 H       
  30 H30            3.1216    -2.2871    -0.9300 H       
  31 H31            3.1390    -2.2961     0.8499 H       
  32 H32            2.0821    -8.2681    -1.2362 H       
  33 H33            2.0987    -7.7835    -3.6328 H       
  34 H34            2.4862    -3.2355    -4.5725 H       
  35 H35            2.5021    -2.7735    -6.9889 H       
  36 H36            2.3230    -4.6239    -8.6003 H       
  37 H37            2.1272    -6.9438    -7.8052 H       
  38 H38            2.1223    -7.4253    -5.3926 H       
@<TRIPOS>BOND
   1    1    2 ar
   2    1    6 ar
   3    1    7 1
   4    2    3 ar
   5    2   25 1
   6    3    4 ar
   7    3    8 1
   8    4    5 ar
   9    4   26 1
  10    5    6 ar
  11    5   27 1
  12    7   28 1
  13    7   29 1
  14    8    9 1
  15    9   18 1
  16    9   30 1
  17    9   31 1
  18   10   11 1
  19   10   15 1
  20   10   17 2
  21   11   12 2
  22   11   32 1
  23   12   13 1
  24   12   33 1
  25   13   14 2
  26   13   19 1
  27   14   15 1
  28   15   18 1
  29   16   17 1
  30   16   18 2
  31   19   20 ar
  32   19   24 ar
  33   20   21 ar
  34   20   34 1
  35   21   22 ar
  36   21   35 1
  37   22   23 ar
  38   22   36 1
  39   23   24 ar
  40   23   37 1
  41   24   38 1

#	End of record

