#	Name: ASD01880111
#	Creating user name:	WinNT
#	Creation time:	15. 06. 2019 19:40

#	Modifying user name:	WinNT
#	Modification time:	15. 06. 2019 19:40

#	Program:	/corina/corina34_cracker 3.40 0067  02.08.2006

@<TRIPOS>MOLECULE
ASD01880111
  63   67    0    0    0
SMALL
NO_CHARGES


@<TRIPOS>ATOM
   1 C1            -0.0168     1.3889     0.0097 C.ar    
   2 C2             0.0021    -0.0041     0.0020 C.ar    
   3 C3            -1.1854    -0.7080     0.0101 C.ar    
   4 C4            -2.3923    -0.0328     0.0252 C.ar    
   5 C5            -2.4168     1.3504     0.0329 C.ar    
   6 C6            -1.2357     2.0640     0.0308 C.ar    
   7 C7            -3.7358     2.0791     0.0489 C.3     
   8 O8            -4.1404     2.3022     1.4012 O.3     
   9 C9            -5.3159     2.9516     1.5932 C.ar    
  10 C10           -6.0665     3.3667     0.4997 C.ar    
  11 C11           -7.2621     4.0272     0.6910 C.ar    
  12 C12           -7.7189     4.2786     1.9867 C.ar    
  13 C13           -6.9502     3.8531     3.0840 C.ar    
  14 C14           -5.7715     3.1963     2.8842 C.ar    
  15 C15           -8.2516     4.5747    -0.3094 C.3     
  16 C16           -9.3881     5.2021     0.5097 C.3     
  17 C17           -9.0046     4.9891     1.9539 C.2     
  18 C18           -9.4977     6.6975     0.2054 C.3     
  19 C19           -9.7886     6.9111    -1.2905 C.3     
  20 C20          -11.1434     7.6440    -1.3757 C.3     
  21 C21          -11.2807     8.3492    -0.0035 C.3     
  22 C22          -10.6858     7.3081     0.9769 C.3     
  23 O23           -9.6465     5.3435     2.9201 O.2     
  24 C24           -4.9547     2.7436     4.0670 C.3     
  25 C25           -7.4327     4.1192     4.4866 C.3     
  26 C26            1.2566     2.1510     0.0016 C.ar    
  27 C27            2.4806     1.4827    -0.0137 C.ar    
  28 C28            3.6512     2.2484    -0.0207 C.ar    
  29 C29            3.5489     3.6410    -0.0122 C.ar    
  30 N30            2.3715     4.2312     0.0027 N.ar    
  31 C31            1.2461     3.5454     0.0034 C.ar    
  32 C32            4.9755     1.5938    -0.0364 C.2     
  33 O33            5.0538     0.3817    -0.0432 O.2     
  34 O34            6.0963     2.3411    -0.0430 O.3     
  35 H35            0.9440    -0.5323    -0.0105 H       
  36 H36           -1.1719    -1.7879     0.0041 H       
  37 H37           -3.3190    -0.5874     0.0308 H       
  38 H38           -1.2560     3.1438     0.0368 H       
  39 H39           -3.6282     3.0366    -0.4608 H       
  40 H40           -4.4889     1.4786    -0.4613 H       
  41 H41           -5.7127     3.1719    -0.5020 H       
  42 H42           -7.7752     5.3328    -0.9310 H       
  43 H43           -8.6396     3.7686    -0.9321 H       
  44 H44          -10.3315     4.7015     0.2917 H       
  45 H45           -8.5726     7.2033     0.4817 H       
  46 H46           -9.0051     7.5212    -1.7398 H       
  47 H47           -9.8517     5.9494    -1.7996 H       
  48 H48          -11.1303     8.3774    -2.1819 H       
  49 H49          -11.9546     6.9306    -1.5208 H       
  50 H50          -10.7020     9.2727     0.0158 H       
  51 H51          -12.3280     8.5434     0.2279 H       
  52 H52          -11.4232     6.5404     1.2118 H       
  53 H53          -10.3388     7.7964     1.8876 H       
  54 H54           -5.2578     1.7366     4.3537 H       
  55 H55           -3.8980     2.7428     3.7998 H       
  56 H56           -5.1176     3.4239     4.9029 H       
  57 H57           -8.0463     3.2841     4.8244 H       
  58 H58           -6.5755     4.2321     5.1504 H       
  59 H59           -8.0252     5.0340     4.4996 H       
  60 H60            2.5235     0.4036    -0.0196 H       
  61 H61            4.4465     4.2417    -0.0175 H       
  62 H62            0.3025     4.0707     0.0159 H       
  63 H63            6.9395     1.8679    -0.0533 H       
@<TRIPOS>BOND
   1    1    2 ar
   2    1   26 1
   3    1    6 ar
   4    2    3 ar
   5    2   35 1
   6    3    4 ar
   7    3   36 1
   8    4    5 ar
   9    4   37 1
  10    5    6 ar
  11    5    7 1
  12    6   38 1
  13    7    8 1
  14    7   39 1
  15    7   40 1
  16    8    9 1
  17    9   10 ar
  18    9   14 ar
  19   10   11 ar
  20   10   41 1
  21   11   12 ar
  22   11   15 1
  23   12   13 ar
  24   12   17 1
  25   13   14 ar
  26   13   25 1
  27   14   24 1
  28   15   16 1
  29   15   42 1
  30   15   43 1
  31   16   17 1
  32   16   18 1
  33   16   44 1
  34   17   23 2
  35   18   19 1
  36   18   22 1
  37   18   45 1
  38   19   20 1
  39   19   46 1
  40   19   47 1
  41   20   21 1
  42   20   48 1
  43   20   49 1
  44   21   22 1
  45   21   50 1
  46   21   51 1
  47   22   52 1
  48   22   53 1
  49   24   54 1
  50   24   55 1
  51   24   56 1
  52   25   57 1
  53   25   58 1
  54   25   59 1
  55   26   27 ar
  56   26   31 ar
  57   27   28 ar
  58   27   60 1
  59   28   29 ar
  60   28   32 1
  61   29   30 ar
  62   29   61 1
  63   30   31 ar
  64   31   62 1
  65   32   33 2
  66   32   34 1
  67   34   63 1

#	End of record

