#	Name: ASD01208989
#	Creating user name:	WinNT
#	Creation time:	15. 06. 2019 19:10

#	Modifying user name:	WinNT
#	Modification time:	15. 06. 2019 19:10

#	Program:	/corina/corina34_cracker 3.40 0067  02.08.2006

@<TRIPOS>MOLECULE
ASD01208989
  52   55    0    0    0
SMALL
NO_CHARGES


@<TRIPOS>ATOM
   1 C1             0.6114     1.3735    -2.3296 C.3     
   2 C2             0.2600    -0.1212    -2.4305 C.3     
   3 C3            -0.6701    -0.5196    -1.2829 C.3     
   4 C4            -0.8594    -2.0379    -1.2834 C.3     
   5 C5            -1.6316    -2.4483    -0.0561 C.2     
   6 N6            -1.0948    -2.2729     1.1677 N.am    
   7 C7            -1.7576    -2.7435     2.2879 C.2     
   8 N8            -1.6001    -2.4373    -2.4826 N.pl3   
   9 C9            -2.9375    -2.3687    -2.6492 C.2     
  10 C10           -3.2228    -2.8294    -3.8892 C.2     
  11 C11           -2.0185    -3.1919    -4.5012 C.2     
  12 N12           -1.0446    -2.9521    -3.6611 N.2     
  13 O13           -2.7359    -2.9363    -0.1696 O.2     
  14 S14           -1.1899    -2.5879     3.8926 S.3     
  15 C15           -2.6182    -3.4269     4.4928 C.2     
  16 C16           -3.3964    -3.7484     3.4156 C.2     
  17 N17           -2.9026    -3.3611     2.2672 N.2     
  18 C18           -2.9178    -3.7265     5.8935 C.2     
  19 C19           -5.0767    -1.3555    -5.4322 C.3     
  20 C20           -6.4451    -1.0931    -6.0643 C.3     
  21 C21           -6.0435    -0.3653    -4.7798 C.3     
  22 C22           -0.4562    -0.3152    -3.7829 C.3     
  23 C23            0.0340     0.8736    -4.6464 C.3     
  24 C24            0.0963     2.0356    -3.6242 C.3     
  25 N25           -2.0590    -3.3502     6.8616 N.am    
  26 O26           -3.9428    -4.3154     6.1842 O.2     
  27 S27           -4.8278    -2.9511    -4.6060 S.o2    
  28 O28           -4.7060    -3.9945    -5.5629 O.2     
  29 O29           -5.7006    -3.0771    -3.4917 O.2     
  30 H30            0.1192     1.8150    -1.4630 H       
  31 H31            1.6912     1.4986    -2.2502 H       
  32 H32            1.1693    -0.7215    -2.3993 H       
  33 H33           -0.2314    -0.2085    -0.3349 H       
  34 H34           -1.6367    -0.0330    -1.4130 H       
  35 H35            0.1154    -2.5255    -1.2793 H       
  36 H36           -0.2440    -1.8169     1.2633 H       
  37 H37           -3.6521    -2.0106    -1.9230 H       
  38 H38           -1.9108    -3.5958    -5.4971 H       
  39 H39           -4.3371    -4.2715     3.5049 H       
  40 H40           -4.2020    -0.9464    -5.9379 H       
  41 H41           -6.4707    -0.5110    -6.9855 H       
  42 H42           -7.1958    -1.8792    -5.9836 H       
  43 H43           -6.5300    -0.6726    -3.8541 H       
  44 H44           -5.8049     0.6956    -4.8559 H       
  45 H45           -0.1644    -1.2623    -4.2368 H       
  46 H46           -1.5374    -0.2711    -3.6518 H       
  47 H47            1.0217     0.6693    -5.0597 H       
  48 H48           -0.6798     1.0949    -5.4399 H       
  49 H49           -0.8956     2.4594    -3.4674 H       
  50 H50            0.7914     2.8041    -3.9622 H       
  51 H51           -1.2423    -2.8809     6.6300 H       
  52 H52           -2.2576    -3.5488     7.7901 H       
@<TRIPOS>BOND
   1    1    2 1
   2    1   24 1
   3    1   30 1
   4    1   31 1
   5    2    3 1
   6    2   22 1
   7    2   32 1
   8    3    4 1
   9    3   33 1
  10    3   34 1
  11    4    5 1
  12    4    8 1
  13    4   35 1
  14    5    6 am
  15    5   13 2
  16    6    7 1
  17    6   36 1
  18    7   14 1
  19    7   17 2
  20    8    9 1
  21    8   12 1
  22    9   10 2
  23    9   37 1
  24   10   11 1
  25   10   27 1
  26   11   12 2
  27   11   38 1
  28   14   15 1
  29   15   16 2
  30   15   18 1
  31   16   17 1
  32   16   39 1
  33   18   25 am
  34   18   26 2
  35   19   20 1
  36   19   27 1
  37   19   21 1
  38   19   40 1
  39   20   21 1
  40   20   41 1
  41   20   42 1
  42   21   43 1
  43   21   44 1
  44   22   23 1
  45   22   45 1
  46   22   46 1
  47   23   24 1
  48   23   47 1
  49   23   48 1
  50   24   49 1
  51   24   50 1
  52   25   51 1
  53   25   52 1
  54   27   28 2
  55   27   29 2

#	End of record

