#	Name: ASD01380012
#	Creating user name:	WinNT
#	Creation time:	15. 06. 2019 19:16

#	Modifying user name:	WinNT
#	Modification time:	15. 06. 2019 19:16

#	Program:	/corina/corina34_cracker 3.40 0067  02.08.2006

@<TRIPOS>MOLECULE
ASD01380012
  61   64    0    0    0
SMALL
NO_CHARGES


@<TRIPOS>ATOM
   1 O1             0.1784     1.4986    -0.6162 O.3     
   2 C2             0.2670     0.0747    -0.5343 C.3     
   3 C3            -1.1179    -0.5487    -0.2341 C.3     
   4 O4            -0.9778    -1.7037     0.6347 O.3     
   5 C5            -1.0601    -1.4845     1.9619 C.2     
   6 O6            -1.2438    -0.3590     2.3816 O.2     
   7 C7            -0.9272    -2.6093     2.9036 C.ar    
   8 C8            -0.8351    -3.9194     2.4259 C.ar    
   9 C9            -0.7111    -4.9669     3.3121 C.ar    
  10 C10           -0.6775    -4.7293     4.6770 C.ar    
  11 C11           -0.7678    -3.4417     5.1649 C.ar    
  12 C12           -0.8866    -2.3715     4.2872 C.ar    
  13 N13           -0.9772    -1.0750     4.7755 N.pl3   
  14 C14           -1.6480    -0.9749    -1.6168 C.3     
  15 O15           -0.6695    -0.5758    -2.5912 O.3     
  16 C16            0.6065    -0.5389    -1.9165 C.3     
  17 N17            1.1475    -1.8915    -1.7618 N.pl3   
  18 C18            0.4372    -3.0541    -1.8044 C.2     
  19 N19            1.2339    -4.0684    -1.6304 N.2     
  20 C20            2.5023    -3.6223    -1.4655 C.ar    
  21 C21            2.4630    -2.2207    -1.5532 C.ar    
  22 N22            3.5934    -1.5334    -1.4238 N.ar    
  23 C23            4.7356    -2.1536    -1.2162 C.ar    
  24 N24            4.8223    -3.4684    -1.1264 N.ar    
  25 C25            3.7462    -4.2388    -1.2468 C.ar    
  26 N26            3.8469    -5.6157    -1.1508 N.pl3   
  27 C27           -2.9798    -0.2775    -1.9011 C.3     
  28 O28           -3.5204    -0.7659    -3.1304 O.3     
  29 P29           -4.9182    -0.2495    -3.7401 P.3     
  30 O30           -4.8842     1.2241    -3.8726 O.2     
  31 O31           -5.1497    -0.9134    -5.1885 O.3     
  32 P32           -6.0706    -0.5404    -6.4554 P.3     
  33 O33           -5.9695     0.9106    -6.7287 O.2     
  34 O34           -5.5698    -1.3654    -7.7442 O.3     
  35 P35           -5.7546    -1.1787    -9.3326 P.3     
  36 O36           -5.5265     0.2386    -9.6926 O.2     
  37 O37           -4.6930    -2.1072   -10.1092 O.3     
  38 O38           -7.2491    -1.6053    -9.7529 O.3     
  39 O39           -7.6020    -0.9211    -6.1364 O.3     
  40 O40           -6.1213    -0.6725    -2.7574 O.3     
  41 H41            1.0209     1.9350    -0.8028 H       
  42 H42            0.9992    -0.2251     0.2154 H       
  43 H43           -1.7788     0.1903     0.2189 H       
  44 H44           -0.8614    -4.1105     1.3632 H       
  45 H45           -0.6400    -5.9787     2.9411 H       
  46 H46           -0.5803    -5.5575     5.3634 H       
  47 H47           -0.7412    -3.2653     6.2301 H       
  48 H48           -1.0599    -0.9208     5.7296 H       
  49 H49           -0.9577    -0.3235     4.1626 H       
  50 H50           -1.7801    -2.0565    -1.6458 H       
  51 H51            1.3080     0.0968    -2.4568 H       
  52 H52           -0.6294    -3.1233    -1.9594 H       
  53 H53            5.6357    -1.5653    -1.1160 H       
  54 H54            4.7103    -6.0291    -0.9939 H       
  55 H55            3.0541    -6.1674    -1.2404 H       
  56 H56           -3.6781    -0.4833    -1.0899 H       
  57 H57           -2.8179     0.7978    -1.9771 H       
  58 H58           -4.7471    -2.0453   -11.0727 H       
  59 H59           -7.4687    -2.5240    -9.5461 H       
  60 H60           -7.7430    -1.8589    -5.9473 H       
  61 H61           -6.2033    -1.6267    -2.6241 H       
@<TRIPOS>BOND
   1    1    2 1
   2    1   41 1
   3    2    3 1
   4    2   16 1
   5    2   42 1
   6    3    4 1
   7    3   14 1
   8    3   43 1
   9    4    5 1
  10    5    6 2
  11    5    7 1
  12    7    8 ar
  13    7   12 ar
  14    8    9 ar
  15    8   44 1
  16    9   10 ar
  17    9   45 1
  18   10   11 ar
  19   10   46 1
  20   11   12 ar
  21   11   47 1
  22   12   13 1
  23   13   48 1
  24   13   49 1
  25   14   15 1
  26   14   27 1
  27   14   50 1
  28   15   16 1
  29   16   17 1
  30   16   51 1
  31   17   18 1
  32   17   21 1
  33   18   19 2
  34   18   52 1
  35   19   20 1
  36   20   21 ar
  37   20   25 ar
  38   21   22 ar
  39   22   23 ar
  40   23   24 ar
  41   23   53 1
  42   24   25 ar
  43   25   26 1
  44   26   54 1
  45   26   55 1
  46   27   28 1
  47   27   56 1
  48   27   57 1
  49   28   29 1
  50   29   30 2
  51   29   31 1
  52   29   40 1
  53   31   32 1
  54   32   33 2
  55   32   34 1
  56   32   39 1
  57   34   35 1
  58   35   36 2
  59   35   37 1
  60   35   38 1
  61   37   58 1
  62   38   59 1
  63   39   60 1
  64   40   61 1

#	End of record

