#	Name: ASD01880540
#	Creating user name:	WinNT
#	Creation time:	15. 06. 2019 19:40

#	Modifying user name:	WinNT
#	Modification time:	15. 06. 2019 19:40

#	Program:	/corina/corina34_cracker 3.40 0067  02.08.2006

@<TRIPOS>MOLECULE
ASD01880540
  48   51    0    0    0
SMALL
NO_CHARGES


@<TRIPOS>ATOM
   1 N1            -0.0322     1.2637    -0.1614 N.ar    
   2 C2             0.0465    -0.0498    -0.2000 C.ar    
   3 N3             1.1925    -0.6839    -0.0490 N.ar    
   4 C4             2.3208    -0.0178     0.1495 C.ar    
   5 C5             2.2879     1.3667     0.1979 C.ar    
   6 C6             1.0571     2.0052     0.0341 C.ar    
   7 C7             3.5478     2.1626     0.4221 C.3     
   8 O8             4.2294     2.3358    -0.8219 O.3     
   9 C9             5.3917     3.0360    -0.7953 C.ar    
  10 C10            6.1062     3.2418    -1.9714 C.ar    
  11 C11            7.2815     3.9506    -1.9432 C.ar    
  12 C12            7.7669     4.4686    -0.7379 C.ar    
  13 C13            7.0451     4.2593     0.4404 C.ar    
  14 C14            5.8641     3.5517     0.4057 C.ar    
  15 C15            8.2756     4.3449    -3.0070 C.3     
  16 N16            9.3284     5.1041    -2.3228 N.am    
  17 C17            9.0309     5.1731    -1.0139 C.2     
  18 O18            9.7086     5.7371    -0.1767 O.2     
  19 Cl19           3.8209    -0.8688     0.3469 Cl      
  20 C20            0.9640     3.4848     0.0764 C.ar    
  21 C21            1.8940     4.2641    -0.6094 C.ar    
  22 C22            1.8022     5.6405    -0.5668 C.ar    
  23 C23            0.7899     6.2468     0.1551 C.ar    
  24 C24           -0.1358     5.4783     0.8377 C.ar    
  25 C25           -0.0572     4.1011     0.7975 C.ar    
  26 C26           11.4233     7.7281    -4.0812 C.3     
  27 C27           10.1897     7.1161    -3.4144 C.3     
  28 C28           10.5096     5.6902    -2.9612 C.3     
  29 H29           -0.8538    -0.6246    -0.3597 H       
  30 H30            3.2925     3.1383     0.8355 H       
  31 H31            4.1945     1.6303     1.1196 H       
  32 H32            5.7369     2.8441    -2.9052 H       
  33 H33            7.4113     4.6547     1.3764 H       
  34 H34            5.3066     3.3907     1.3165 H       
  35 H35            8.6982     3.4548    -3.4733 H       
  36 H36            7.7921     4.9686    -3.7589 H       
  37 H37            2.6852     3.7919    -1.1728 H       
  38 H38            2.5223     6.2454    -1.0979 H       
  39 H39            0.7223     7.3242     0.1863 H       
  40 H40           -0.9241     5.9570     1.3998 H       
  41 H41           -0.7808     3.5021     1.3305 H       
  42 H42           12.2482     7.7497    -3.3690 H       
  43 H43           11.7052     7.1267    -4.9455 H       
  44 H44           11.1954     8.7439    -4.4041 H       
  45 H45            9.9078     7.7174    -2.5501 H       
  46 H46            9.3648     7.0945    -4.1267 H       
  47 H47           11.3344     5.7117    -2.2490 H       
  48 H48           10.7914     5.0888    -3.8255 H       
@<TRIPOS>BOND
   1    1    2 ar
   2    1    6 ar
   3    2    3 ar
   4    2   29 1
   5    3    4 ar
   6    4    5 ar
   7    4   19 1
   8    5    6 ar
   9    5    7 1
  10    6   20 1
  11    7    8 1
  12    7   30 1
  13    7   31 1
  14    8    9 1
  15    9   10 ar
  16    9   14 ar
  17   10   11 ar
  18   10   32 1
  19   11   12 ar
  20   11   15 1
  21   12   13 ar
  22   12   17 1
  23   13   14 ar
  24   13   33 1
  25   14   34 1
  26   15   16 1
  27   15   35 1
  28   15   36 1
  29   16   17 am
  30   16   28 1
  31   17   18 2
  32   20   21 ar
  33   20   25 ar
  34   21   22 ar
  35   21   37 1
  36   22   23 ar
  37   22   38 1
  38   23   24 ar
  39   23   39 1
  40   24   25 ar
  41   24   40 1
  42   25   41 1
  43   26   27 1
  44   26   42 1
  45   26   43 1
  46   26   44 1
  47   27   28 1
  48   27   45 1
  49   27   46 1
  50   28   47 1
  51   28   48 1

#	End of record

