#	Name: ASD03320016
#	Creating user name:	WinNT
#	Creation time:	15. 06. 2019 20:35

#	Modifying user name:	WinNT
#	Modification time:	15. 06. 2019 20:35

#	Program:	/corina/corina34_cracker 3.40 0067  02.08.2006

@<TRIPOS>MOLECULE
ASD03320016
  67   71    0    0    0
SMALL
NO_CHARGES


@<TRIPOS>ATOM
   1 C1            -0.9119     4.1595    -0.0851 C.ar    
   2 C2            -1.0399     2.7824     0.0950 C.ar    
   3 C3             0.3381     4.7260    -0.2020 C.ar    
   4 C4             1.4775     3.9210    -0.1402 C.ar    
   5 C5             1.3484     2.5423     0.0402 C.ar    
   6 C6             0.0976     1.9777     0.1573 C.ar    
   7 C7             2.8196     4.5280    -0.2660 C.2     
   8 N8             3.0320     5.5144    -1.1594 N.am    
   9 O9             3.7316     4.1373     0.4363 O.2     
  10 C10           -2.3864     2.1734     0.2207 C.ar    
  11 C11           -2.5270     0.7998     0.4008 C.ar    
  12 C12           -3.8158     0.2780     0.5139 C.ar    
  13 N13           -4.8551     1.1054     0.4460 N.ar    
  14 C14           -4.6798     2.4005     0.2747 C.ar    
  15 N15           -3.4811     2.9337     0.1686 N.ar    
  16 N16           -4.0106    -1.0831     0.6939 N.pl3   
  17 C17           -5.2971    -1.5813     0.9189 C.ar    
  18 C18           -5.6233    -2.8695     0.5183 C.ar    
  19 C19           -6.9002    -3.3598     0.7432 C.ar    
  20 C20           -7.8488    -2.5625     1.3678 C.ar    
  21 C21           -7.5223    -1.2798     1.7661 C.ar    
  22 C22           -6.2495    -0.7894     1.5491 C.ar    
  23 C23            4.3230     6.2151    -1.2073 C.3     
  24 C24            4.8801     6.1189    -2.6330 C.3     
  25 N25            3.8250     6.5129    -3.5771 N.am    
  26 C26            2.5340     5.8123    -3.5292 C.3     
  27 C27            1.9788     5.9046    -2.1073 C.3     
  28 C28            4.0374     7.4994    -4.4706 C.2     
  29 C29            2.9338     7.9591    -5.3404 C.ar    
  30 O30            5.1362     8.0111    -4.5612 O.2     
  31 C31            2.6869     9.3237    -5.4972 C.ar    
  32 C32            1.6554     9.7460    -6.3104 C.ar    
  33 C33            0.8668     8.8202    -6.9696 C.ar    
  34 C34            1.1060     7.4656    -6.8182 C.ar    
  35 C35            2.1379     7.0302    -6.0131 C.ar    
  36 C36            0.2414     6.4642    -7.5398 C.3     
  37 F37           -0.7247     7.1394    -8.2933 F       
  38 F38            1.0369     5.6880    -8.3895 F       
  39 F39           -0.3904     5.6354    -6.6065 F       
  40 O40           -7.2230    -4.6206     0.3518 O.3     
  41 C41           -8.5569    -5.0601     0.6154 C.3     
  42 H42           -1.7934     4.7813    -0.1374 H       
  43 H43            0.4369     5.7923    -0.3418 H       
  44 H44            2.2290     1.9189     0.0882 H       
  45 H45           -0.0025     0.9115     0.2972 H       
  46 H46           -1.6616     0.1557     0.4512 H       
  47 H47           -5.5456     3.0440     0.2236 H       
  48 H48           -3.2541    -1.6895     0.6636 H       
  49 H49           -4.8839    -3.4885     0.0320 H       
  50 H50           -8.8437    -2.9446     1.5426 H       
  51 H51           -8.2626    -0.6613     2.2517 H       
  52 H52           -5.9968     0.2130     1.8615 H       
  53 H53            4.1811     7.2622    -0.9399 H       
  54 H54            5.0188     5.7479    -0.5104 H       
  55 H55            5.7338     6.7885    -2.7381 H       
  56 H56            5.1891     5.0936    -2.8367 H       
  57 H57            1.8382     6.2794    -4.2262 H       
  58 H58            2.6759     4.7652    -3.7967 H       
  59 H59            1.1253     5.2346    -2.0036 H       
  60 H60            1.6697     6.9294    -1.9011 H       
  61 H61            3.3017    10.0475    -4.9828 H       
  62 H62            1.4630    10.8017    -6.4323 H       
  63 H63            0.0606     9.1560    -7.6050 H       
  64 H64            2.3236     5.9728    -5.8957 H       
  65 H65           -8.7441    -5.0297     1.6888 H       
  66 H66           -9.2629    -4.4052     0.1048 H       
  67 H67           -8.6813    -6.0808     0.2537 H       
@<TRIPOS>BOND
   1    1    2 ar
   2    1    3 ar
   3    1   42 1
   4    2   10 1
   5    2    6 ar
   6    3    4 ar
   7    3   43 1
   8    4    5 ar
   9    4    7 1
  10    5    6 ar
  11    5   44 1
  12    6   45 1
  13    7    8 am
  14    7    9 2
  15    8   23 1
  16    8   27 1
  17   10   11 ar
  18   10   15 ar
  19   11   12 ar
  20   11   46 1
  21   12   13 ar
  22   12   16 1
  23   13   14 ar
  24   14   15 ar
  25   14   47 1
  26   16   17 1
  27   16   48 1
  28   17   18 ar
  29   17   22 ar
  30   18   19 ar
  31   18   49 1
  32   19   20 ar
  33   19   40 1
  34   20   21 ar
  35   20   50 1
  36   21   22 ar
  37   21   51 1
  38   22   52 1
  39   23   24 1
  40   23   53 1
  41   23   54 1
  42   24   25 1
  43   24   55 1
  44   24   56 1
  45   25   26 1
  46   25   28 am
  47   26   27 1
  48   26   57 1
  49   26   58 1
  50   27   59 1
  51   27   60 1
  52   28   29 1
  53   28   30 2
  54   29   31 ar
  55   29   35 ar
  56   31   32 ar
  57   31   61 1
  58   32   33 ar
  59   32   62 1
  60   33   34 ar
  61   33   63 1
  62   34   35 ar
  63   34   36 1
  64   35   64 1
  65   36   37 1
  66   36   38 1
  67   36   39 1
  68   40   41 1
  69   41   65 1
  70   41   66 1
  71   41   67 1

#	End of record

