#	Name: ASD01410346
#	Creating user name:	WinNT
#	Creation time:	15. 06. 2019 19:17

#	Modifying user name:	WinNT
#	Modification time:	15. 06. 2019 19:17

#	Program:	/corina/corina34_cracker 3.40 0067  02.08.2006

@<TRIPOS>MOLECULE
ASD01410346
  56   59    0    0    0
SMALL
NO_CHARGES


@<TRIPOS>ATOM
   1 N1            -0.0166     1.3710     0.0096 N.pl3   
   2 C2             0.0021    -0.0041     0.0020 C.2     
   3 C3            -1.2725    -0.4705     0.0122 C.2     
   4 C4            -2.1421     0.6464     0.0268 C.ar    
   5 C5            -1.3279     1.7973     0.0304 C.ar    
   6 C6            -3.5385     0.7767     0.0410 C.ar    
   7 C7            -4.1072     2.0130     0.0525 C.ar    
   8 C8            -3.3052     3.1643     0.0506 C.ar    
   9 C9            -1.9161     3.0529     0.0442 C.ar    
  10 C10           -2.5092    -2.2177     1.2640 C.3     
  11 C11           -2.9309    -3.6885     1.2598 C.3     
  12 C12           -3.7773    -3.9728     0.0174 C.3     
  13 C13           -2.9560    -3.6742    -1.2385 C.3     
  14 C14           -2.5343    -2.2035    -1.2343 C.3     
  15 C15           -1.6879    -1.9191     0.0081 C.3     
  16 C16            1.1628     2.2400     0.0030 C.3     
  17 C17            1.5536     2.5456    -1.4200 C.2     
  18 O18            0.9104     2.0831    -2.3382 O.2     
  19 C19            2.9980     3.6301    -3.0556 C.3     
  20 N20            2.6180     3.3330    -1.6722 N.am    
  21 C21            3.3951     3.8918    -0.5631 C.3     
  22 C22            3.4524    -2.3215    -0.0685 C.ar    
  23 C23            2.2720    -2.8283     0.4476 C.ar    
  24 N24            1.1823    -2.0835     0.4652 N.ar    
  25 C25            1.2193    -0.8426    -0.0146 C.ar    
  26 C26            2.4129    -0.3358    -0.5344 C.ar    
  27 N27            3.4959    -1.0892    -0.5468 N.ar    
  28 C28           -3.9348     4.4976     0.0627 C.2     
  29 O29           -3.2427     5.4963     0.0611 O.2     
  30 O30           -5.2778     4.6085     0.0753 O.3     
  31 H31           -4.1628    -0.1046     0.0425 H       
  32 H32           -5.1829     2.1085     0.0627 H       
  33 H33           -1.3006     3.9404     0.0428 H       
  34 H34           -3.3968    -1.5853     1.2765 H       
  35 H35           -1.9062    -2.0152     2.1491 H       
  36 H36           -2.0432    -4.3209     1.2473 H       
  37 H37           -3.5160    -3.9012     2.1546 H       
  38 H38           -4.0777    -5.0206     0.0145 H       
  39 H39           -4.6650    -3.3403     0.0300 H       
  40 H40           -2.0684    -4.3067    -1.2510 H       
  41 H41           -3.5590    -3.8768    -2.1236 H       
  42 H42           -1.9492    -1.9907    -2.1290 H       
  43 H43           -3.4220    -1.5710    -1.2218 H       
  44 H44           -0.8002    -2.5516    -0.0044 H       
  45 H45            0.9323     3.1693     0.5240 H       
  46 H46            1.9881     1.7363     0.5063 H       
  47 H47            3.7018     2.8765    -3.4089 H       
  48 H48            2.1091     3.6213    -3.6864 H       
  49 H49            3.4658     4.6136    -3.1006 H       
  50 H50            2.9782     4.8576    -0.2777 H       
  51 H51            3.3535     3.2123     0.2882 H       
  52 H52            4.4316     4.0211    -0.8745 H       
  53 H53            4.3424    -2.9333    -0.0766 H       
  54 H54            2.2426    -3.8354     0.8364 H       
  55 H55            2.4490     0.6703    -0.9254 H       
  56 H56           -5.6443     5.5033     0.0829 H       
@<TRIPOS>BOND
   1    1    2 1
   2    1   16 1
   3    1    5 1
   4    2    3 2
   5    2   25 1
   6    3    4 1
   7    3   15 1
   8    4    5 ar
   9    4    6 ar
  10    5    9 ar
  11    6    7 ar
  12    6   31 1
  13    7    8 ar
  14    7   32 1
  15    8    9 ar
  16    8   28 1
  17    9   33 1
  18   10   11 1
  19   10   15 1
  20   10   34 1
  21   10   35 1
  22   11   12 1
  23   11   36 1
  24   11   37 1
  25   12   13 1
  26   12   38 1
  27   12   39 1
  28   13   14 1
  29   13   40 1
  30   13   41 1
  31   14   15 1
  32   14   42 1
  33   14   43 1
  34   15   44 1
  35   16   17 1
  36   16   45 1
  37   16   46 1
  38   17   18 2
  39   17   20 am
  40   19   20 1
  41   19   47 1
  42   19   48 1
  43   19   49 1
  44   20   21 1
  45   21   50 1
  46   21   51 1
  47   21   52 1
  48   22   23 ar
  49   22   27 ar
  50   22   53 1
  51   23   24 ar
  52   23   54 1
  53   24   25 ar
  54   25   26 ar
  55   26   27 ar
  56   26   55 1
  57   28   29 2
  58   28   30 1
  59   30   56 1

#	End of record

