#	Name: ASD01814384
#	Creating user name:	WinNT
#	Creation time:	15. 06. 2019 19:32

#	Modifying user name:	WinNT
#	Modification time:	15. 06. 2019 19:32

#	Program:	/corina/corina34_cracker 3.40 0067  02.08.2006

@<TRIPOS>MOLECULE
ASD01814384
  54   59    0    0    0
SMALL
NO_CHARGES


@<TRIPOS>ATOM
   1 C1            -0.0167     1.3818     0.0096 C.ar    
   2 C2             0.0021    -0.0041     0.0020 C.ar    
   3 C3             1.1970    -0.6935    -0.0127 C.ar    
   4 C4             2.3990     0.0036    -0.0204 C.ar    
   5 C5             2.3750     1.4118    -0.0131 C.ar    
   6 C6             1.1663     2.0939     0.0022 C.ar    
   7 N7             3.6103    -0.6575    -0.0347 N.pl3   
   8 N8             4.7456    -0.0608    -0.0419 N.2     
   9 C9             4.8828     1.2398    -0.0366 C.2     
  10 C10            3.6771     2.1039    -0.0219 C.2     
  11 C11            6.0123     2.1723    -0.0425 C.2     
  12 N12            5.4768     3.4119    -0.0316 N.am    
  13 N13            4.0816     3.3386    -0.0196 N.2     
  14 C14            6.2491     4.6568    -0.0324 C.3     
  15 C15            5.8907     5.4697    -1.2730 C.3     
  16 C16            6.8732     6.6323    -1.4377 C.3     
  17 S17            6.7131     7.7430    -0.0081 S.3     
  18 C18            6.9243     6.6022     1.3910 C.3     
  19 C19            5.9361     5.4430     1.2373 C.3     
  20 C20            3.5988    -2.1224    -0.0414 C.3     
  21 C21            3.5818    -2.6181    -1.4645 C.ar    
  22 C22            4.7722    -2.8544    -2.1271 C.ar    
  23 C23            4.7598    -3.3083    -3.4315 C.ar    
  24 C24            3.5505    -3.5277    -4.0773 C.ar    
  25 C25            2.3569    -3.2899    -3.4092 C.ar    
  26 C26            2.3757    -2.8411    -2.1031 C.ar    
  27 N27            3.5347    -3.9879    -5.4013 N.pl3   
  28 C28            2.4325    -4.2410    -6.1428 C.2     
  29 C29            2.8438    -4.6658    -7.3599 C.2     
  30 C30            4.2430    -4.6730    -7.3636 C.2     
  31 N31            4.6578    -4.2612    -6.1926 N.2     
  32 O32            7.1981     1.8866    -0.0544 O.2     
  33 H33           -0.9605     1.9069     0.0170 H       
  34 H34           -0.9294    -0.5506     0.0080 H       
  35 H35            1.1982    -1.7735    -0.0178 H       
  36 H36            1.1511     3.1738     0.0077 H       
  37 H37            7.3127     4.4193    -0.0538 H       
  38 H38            5.9390     4.8277    -2.1526 H       
  39 H39            4.8794     5.8626    -1.1685 H       
  40 H40            7.8911     6.2459    -1.4878 H       
  41 H41            6.6425     7.1786    -2.3523 H       
  42 H42            7.9433     6.2153     1.3960 H       
  43 H43            6.7270     7.1289     2.3247 H       
  44 H44            4.9218     5.8377     1.1778 H       
  45 H45            6.0159     4.7826     2.1007 H       
  46 H46            4.4906    -2.4951     0.4625 H       
  47 H47            2.7107    -2.4812     0.4789 H       
  48 H48            5.7126    -2.6836    -1.6243 H       
  49 H49            5.6899    -3.4920    -3.9488 H       
  50 H50            1.4146    -3.4593    -3.9090 H       
  51 H51            1.4475    -2.6559    -1.5829 H       
  52 H52            1.4080    -4.1254    -5.8211 H       
  53 H53            2.2048    -4.9493    -8.1832 H       
  54 H54            4.8723    -4.9639    -8.1917 H       
@<TRIPOS>BOND
   1    1    2 ar
   2    1    6 ar
   3    1   33 1
   4    2    3 ar
   5    2   34 1
   6    3    4 ar
   7    3   35 1
   8    4    5 ar
   9    4    7 1
  10    5    6 ar
  11    5   10 1
  12    6   36 1
  13    7    8 1
  14    7   20 1
  15    8    9 2
  16    9   10 1
  17    9   11 1
  18   10   13 2
  19   11   12 am
  20   11   32 2
  21   12   13 1
  22   12   14 1
  23   14   15 1
  24   14   19 1
  25   14   37 1
  26   15   16 1
  27   15   38 1
  28   15   39 1
  29   16   17 1
  30   16   40 1
  31   16   41 1
  32   17   18 1
  33   18   19 1
  34   18   42 1
  35   18   43 1
  36   19   44 1
  37   19   45 1
  38   20   21 1
  39   20   46 1
  40   20   47 1
  41   21   22 ar
  42   21   26 ar
  43   22   23 ar
  44   22   48 1
  45   23   24 ar
  46   23   49 1
  47   24   25 ar
  48   24   27 1
  49   25   26 ar
  50   25   50 1
  51   26   51 1
  52   27   28 1
  53   27   31 1
  54   28   29 2
  55   28   52 1
  56   29   30 1
  57   29   53 1
  58   30   31 2
  59   30   54 1

#	End of record

