#	Name: ASD02500226
#	Creating user name:	WinNT
#	Creation time:	15. 06. 2019 20:22

#	Modifying user name:	WinNT
#	Modification time:	15. 06. 2019 20:22

#	Program:	/corina/corina34_cracker 3.40 0067  02.08.2006

@<TRIPOS>MOLECULE
ASD02500226
  69   73    0    0    0
SMALL
NO_CHARGES


@<TRIPOS>ATOM
   1 N1             1.6031     4.4651    -0.1692 N.ar    
   2 C2             2.4680     4.2526     0.7926 C.ar    
   3 C3             3.6946     3.6367     0.5529 C.ar    
   4 C4             4.0210     3.2368    -0.7115 C.ar    
   5 C5             3.0896     3.4662    -1.7419 C.ar    
   6 C6             3.3551     3.0833    -3.0662 C.ar    
   7 C7             2.4285     3.3231    -4.0347 C.ar    
   8 C8             1.2194     3.9442    -3.7292 C.ar    
   9 C9             0.9293     4.3285    -2.4561 C.ar    
  10 C10            1.8605     4.0982    -1.4287 C.ar    
  11 S11           -0.6073     5.1128    -2.0976 S.o2    
  12 O12           -0.2966     6.2831    -1.3539 O.2     
  13 O13           -1.3391     5.1373    -3.3154 O.2     
  14 N14           -1.4397     4.1141    -1.0718 N.am    
  15 C15           -1.9096     2.8852    -1.5260 C.ar    
  16 C16           -3.0990     2.3642    -1.0183 C.ar    
  17 C17           -3.5658     1.1481    -1.4664 C.ar    
  18 C18           -2.8449     0.4372    -2.4312 C.ar    
  19 C19           -1.6534     0.9631    -2.9373 C.ar    
  20 C20           -1.1946     2.1818    -2.4898 C.ar    
  21 C21           -3.3413    -0.8656    -2.9133 C.2     
  22 O22           -3.2817    -1.1389    -4.0966 O.2     
  23 N23           -3.8610    -1.7530    -2.0421 N.am    
  24 C24           -4.2822    -3.0864    -2.4943 C.3     
  25 C25           -3.5587    -4.1419    -1.6489 C.3     
  26 N26           -3.7138    -3.7937    -0.2295 N.am    
  27 C27           -3.2925    -2.4603     0.2227 C.3     
  28 C28           -4.0108    -1.4068    -0.6217 C.3     
  29 C29           -4.2334    -4.6811     0.6417 C.2     
  30 C30           -4.2728    -4.3579     2.1131 C.3     
  31 C31           -4.8101    -5.5640     2.8860 C.3     
  32 O32           -4.6693    -5.7397     0.2415 O.2     
  33 C33           -2.8607    -4.0275     2.6006 C.3     
  34 C34           -5.1739    -3.1720     2.3429 C.ar    
  35 C35           -5.2339    -2.5819     3.5917 C.ar    
  36 C36           -6.0595    -1.4941     3.8035 C.ar    
  37 C37           -6.8267    -0.9952     2.7645 C.ar    
  38 C38           -6.7658    -1.5870     1.5142 C.ar    
  39 C39           -5.9355    -2.6715     1.3034 C.ar    
  40 F40           -7.6345     0.0679     2.9706 F       
  41 F41           -3.7938     3.0522    -0.0860 F       
  42 H42            2.2234     4.5636     1.7976 H       
  43 H43            4.3868     3.4760     1.3662 H       
  44 H44            4.9675     2.7582    -0.9153 H       
  45 H45            4.2891     2.6017    -3.3154 H       
  46 H46            2.6336     3.0281    -5.0532 H       
  47 H47            0.5010     4.1240    -4.5152 H       
  48 H48           -1.5999     4.3856    -0.1545 H       
  49 H49           -4.4869     0.7441    -1.0730 H       
  50 H50           -1.0949     0.4161    -3.6825 H       
  51 H51           -0.2760     2.5902    -2.8847 H       
  52 H52           -5.3597    -3.1921    -2.3679 H       
  53 H53           -4.0201    -3.2162    -3.5443 H       
  54 H54           -3.9966    -5.1226    -1.8349 H       
  55 H55           -2.5002    -4.1559    -1.9086 H       
  56 H56           -3.5546    -2.3305     1.2728 H       
  57 H57           -2.2151    -2.3546     0.0963 H       
  58 H58           -3.5696    -0.4277    -0.4353 H       
  59 H59           -5.0685    -1.3902    -0.3588 H       
  60 H60           -4.1136    -6.3970     2.7895 H       
  61 H61           -4.9194    -5.3019     3.9383 H       
  62 H62           -5.7799    -5.8525     2.4807 H       
  63 H63           -2.4389    -3.2350     1.9824 H       
  64 H64           -2.9029    -3.6955     3.6380 H       
  65 H65           -2.2343    -4.9166     2.5289 H       
  66 H66           -4.6356    -2.9715     4.4021 H       
  67 H67           -6.1065    -1.0335     4.7793 H       
  68 H68           -7.3638    -1.1987     0.7030 H       
  69 H69           -5.8847    -3.1307     0.3272 H       
@<TRIPOS>BOND
   1    1    2 ar
   2    1   10 ar
   3    2    3 ar
   4    2   42 1
   5    3    4 ar
   6    3   43 1
   7    4    5 ar
   8    4   44 1
   9    5    6 ar
  10    5   10 ar
  11    6    7 ar
  12    6   45 1
  13    7    8 ar
  14    7   46 1
  15    8    9 ar
  16    8   47 1
  17    9   10 ar
  18    9   11 1
  19   11   12 2
  20   11   13 2
  21   11   14 am
  22   14   15 1
  23   14   48 1
  24   15   16 ar
  25   15   20 ar
  26   16   17 ar
  27   16   41 1
  28   17   18 ar
  29   17   49 1
  30   18   19 ar
  31   18   21 1
  32   19   20 ar
  33   19   50 1
  34   20   51 1
  35   21   22 2
  36   21   23 am
  37   23   24 1
  38   23   28 1
  39   24   25 1
  40   24   52 1
  41   24   53 1
  42   25   26 1
  43   25   54 1
  44   25   55 1
  45   26   27 1
  46   26   29 am
  47   27   28 1
  48   27   56 1
  49   27   57 1
  50   28   58 1
  51   28   59 1
  52   29   30 1
  53   29   32 2
  54   30   31 1
  55   30   33 1
  56   30   34 1
  57   31   60 1
  58   31   61 1
  59   31   62 1
  60   33   63 1
  61   33   64 1
  62   33   65 1
  63   34   35 ar
  64   34   39 ar
  65   35   36 ar
  66   35   66 1
  67   36   37 ar
  68   36   67 1
  69   37   38 ar
  70   37   40 1
  71   38   39 ar
  72   38   68 1
  73   39   69 1

#	End of record

