#	Name: ASD08850002
#	Creating user name:	WinNT
#	Creation time:	15. 06. 2019 21:20

#	Modifying user name:	WinNT
#	Modification time:	15. 06. 2019 21:20

#	Program:	/corina/corina34_cracker 3.40 0067  02.08.2006

@<TRIPOS>MOLECULE
ASD08850002
  50   50    0    0    0
SMALL
NO_CHARGES


@<TRIPOS>ATOM
   1 C1            -0.0167     1.3781     0.0096 C.ar    
   2 C2             0.0021    -0.0041     0.0020 C.ar    
   3 C3             1.2028    -0.6895    -0.0132 C.ar    
   4 C4             2.4019     0.0038    -0.0205 C.ar    
   5 C5             2.3950     1.4071    -0.0129 C.ar    
   6 C6             1.1707     2.0922     0.0021 C.ar    
   7 O7             3.5785    -0.6710    -0.0345 O.3     
   8 C8             3.6619     2.1543    -0.0201 C.2     
   9 O9             4.1761     2.4687    -1.0756 O.2     
  10 O10            4.2527     2.4904     1.1439 O.3     
  11 O11            1.1494     3.4484     0.0091 O.3     
  12 C12           -0.1337     4.0771     0.0244 C.3     
  13 C13            0.0430     5.5969     0.0304 C.3     
  14 C14           -1.3309     6.2700     0.0468 C.3     
  15 C15           -1.1542     7.7898     0.0528 C.3     
  16 C16           -2.5281     8.4629     0.0691 C.3     
  17 C17           -2.3513     9.9826     0.0751 C.3     
  18 C18           -3.7252    10.6558     0.0915 C.3     
  19 C19           -3.5485    12.1755     0.0974 C.3     
  20 C20           -4.9224    12.8486     0.1138 C.3     
  21 C21           -4.7457    14.3684     0.1198 C.3     
  22 C22           -6.1195    15.0415     0.1361 C.3     
  23 H23           -0.9603     1.9033     0.0169 H       
  24 H24           -0.9282    -0.5527     0.0083 H       
  25 H25            1.2058    -1.7695    -0.0190 H       
  26 H26            3.9117    -0.8623    -0.9219 H       
  27 H27            5.0840     2.9812     1.0886 H       
  28 H28           -0.6945     3.7800    -0.8618 H       
  29 H29           -0.6777     3.7711     0.9180 H       
  30 H30            0.6037     5.8940     0.9166 H       
  31 H31            0.5869     5.9029    -0.8632 H       
  32 H32           -1.8916     5.9729    -0.8395 H       
  33 H33           -1.8748     5.9640     0.9404 H       
  34 H34           -0.5934     8.0869     0.9390 H       
  35 H35           -0.6102     8.0958    -0.8409 H       
  36 H36           -3.0888     8.1658    -0.8171 H       
  37 H37           -3.0720     8.1568     0.9627 H       
  38 H38           -1.7906    10.2797     0.9613 H       
  39 H39           -1.8074    10.2887    -0.8185 H       
  40 H40           -4.2859    10.3587    -0.7948 H       
  41 H41           -4.2691    10.3497     0.9851 H       
  42 H42           -2.9878    12.4726     0.9837 H       
  43 H43           -3.0046    12.4816    -0.7962 H       
  44 H44           -5.4831    12.5516    -0.7724 H       
  45 H45           -5.4663    12.5426     1.0074 H       
  46 H46           -4.1849    14.6655     1.0060 H       
  47 H47           -4.2017    14.6745    -0.7738 H       
  48 H48           -6.6803    14.7444    -0.7501 H       
  49 H49           -6.6635    14.7355     1.0298 H       
  50 H50           -5.9936    16.1242     0.1404 H       
@<TRIPOS>BOND
   1    1    2 ar
   2    1    6 ar
   3    1   23 1
   4    2    3 ar
   5    2   24 1
   6    3    4 ar
   7    3   25 1
   8    4    5 ar
   9    4    7 1
  10    5    6 ar
  11    5    8 1
  12    6   11 1
  13    7   26 1
  14    8    9 2
  15    8   10 1
  16   10   27 1
  17   11   12 1
  18   12   13 1
  19   12   28 1
  20   12   29 1
  21   13   14 1
  22   13   30 1
  23   13   31 1
  24   14   15 1
  25   14   32 1
  26   14   33 1
  27   15   16 1
  28   15   34 1
  29   15   35 1
  30   16   17 1
  31   16   36 1
  32   16   37 1
  33   17   18 1
  34   17   38 1
  35   17   39 1
  36   18   19 1
  37   18   40 1
  38   18   41 1
  39   19   20 1
  40   19   42 1
  41   19   43 1
  42   20   21 1
  43   20   44 1
  44   20   45 1
  45   21   22 1
  46   21   46 1
  47   21   47 1
  48   22   48 1
  49   22   49 1
  50   22   50 1

#	End of record

