#	Name: ASD01411121
#	Creating user name:	WinNT
#	Creation time:	15. 06. 2019 19:19

#	Modifying user name:	WinNT
#	Modification time:	15. 06. 2019 19:19

#	Program:	/corina/corina34_cracker 3.40 0067  02.08.2006

@<TRIPOS>MOLECULE
ASD01411121
  60   62    0    0    0
SMALL
NO_CHARGES


@<TRIPOS>ATOM
   1 C1            -0.1804     1.6237     0.3406 C.3     
   2 C2            -0.2234     0.0938     0.2167 C.3     
   3 O3             1.1742     2.0717     0.2422 O.3     
   4 C4             0.8313    -0.4737     1.1334 C.2     
   5 C5             1.9878     1.7475     1.3766 C.3     
   6 C6             1.8337     0.2720     1.6610 C.2     
   7 C7             1.0014    -1.8194     1.6176 C.ar    
   8 C8             1.5280     2.5580     2.5901 C.3     
   9 N9             2.6269    -0.5125     2.4475 N.pl3   
  10 C10            0.2769    -3.0135     1.4114 C.ar    
  11 C11            2.1527    -1.7947     2.4473 C.ar    
  12 C12            0.7546    -4.1557     2.0647 C.ar    
  13 C13            2.5985    -2.9515     3.0811 C.ar    
  14 C14            1.8757    -4.1158     2.8685 C.ar    
  15 C15            2.3816     2.1870     3.8044 C.3     
  16 C16            3.4526     2.0647     1.0689 C.3     
  17 N17            3.6134     3.5107     0.8968 N.am    
  18 C18            4.7995     4.0931     1.1620 C.2     
  19 O19            5.7355     3.4189     1.5439 O.2     
  20 O20            4.9473     5.4219     1.0039 O.3     
  21 C21            6.2524     5.9809     1.3082 C.3     
  22 C22            7.3057     5.3394     0.4026 C.3     
  23 C23            6.2279     7.4922     1.0708 C.3     
  24 C24            6.5988     5.7000     2.7717 C.3     
  25 C25            3.8194    -2.9387     3.9644 C.3     
  26 C26            1.9903     3.0691     4.9916 C.3     
  27 C27            3.8640     1.3593    -0.1976 C.2     
  28 O28            4.2518     1.9987    -1.1466 O.2     
  29 O29            3.7997     0.0205    -0.2714 O.3     
  30 C30           -0.8865    -3.0540     0.5775 C.1     
  31 N31           -1.8095    -3.0861    -0.0840 N.1     
  32 H32           -0.7698     2.0698    -0.4605 H       
  33 H33           -0.5927     1.9219     1.3045 H       
  34 H34           -1.2061    -0.2730     0.5131 H       
  35 H35           -0.0143    -0.1991    -0.8122 H       
  36 H36            1.6386     3.6218     2.3796 H       
  37 H37            0.4817     2.3361     2.8000 H       
  38 H38            3.4091    -0.2065     2.9328 H       
  39 H39            0.2321    -5.0921     1.9368 H       
  40 H40            2.2025    -5.0256     3.3502 H       
  41 H41            2.2155     1.1402     4.0591 H       
  42 H42            3.4347     2.3409     3.5689 H       
  43 H43            4.0789     1.7251     1.8939 H       
  44 H44            2.8662     4.0489     0.5920 H       
  45 H45            7.0588     5.5395    -0.6401 H       
  46 H46            8.2854     5.7590     0.6310 H       
  47 H47            7.3231     4.2628     0.5717 H       
  48 H48            5.4775     7.9492     1.7159 H       
  49 H49            7.2076     7.9118     1.2992 H       
  50 H50            5.9811     7.6922     0.0281 H       
  51 H51            6.6163     4.6234     2.9408 H       
  52 H52            7.5786     6.1197     3.0001 H       
  53 H53            5.8485     6.1570     3.4169 H       
  54 H54            3.5235    -2.7179     4.9900 H       
  55 H55            4.3043    -3.9142     3.9282 H       
  56 H56            4.5134    -2.1748     3.6140 H       
  57 H57            2.1564     4.1158     4.7369 H       
  58 H58            0.9372     2.9151     5.2271 H       
  59 H59            2.5984     2.8047     5.8567 H       
  60 H60            4.0741    -0.3869    -1.1043 H       
@<TRIPOS>BOND
   1    1    2 1
   2    1    3 1
   3    1   32 1
   4    1   33 1
   5    2    4 1
   6    2   34 1
   7    2   35 1
   8    3    5 1
   9    4    6 2
  10    4    7 1
  11    5    8 1
  12    5   16 1
  13    5    6 1
  14    6    9 1
  15    7   10 ar
  16    7   11 ar
  17    8   15 1
  18    8   36 1
  19    8   37 1
  20    9   11 1
  21    9   38 1
  22   10   12 ar
  23   10   30 1
  24   11   13 ar
  25   12   14 ar
  26   12   39 1
  27   13   14 ar
  28   13   25 1
  29   14   40 1
  30   15   26 1
  31   15   41 1
  32   15   42 1
  33   16   17 1
  34   16   27 1
  35   16   43 1
  36   17   18 am
  37   17   44 1
  38   18   19 2
  39   18   20 1
  40   20   21 1
  41   21   22 1
  42   21   23 1
  43   21   24 1
  44   22   45 1
  45   22   46 1
  46   22   47 1
  47   23   48 1
  48   23   49 1
  49   23   50 1
  50   24   51 1
  51   24   52 1
  52   24   53 1
  53   25   54 1
  54   25   55 1
  55   25   56 1
  56   26   57 1
  57   26   58 1
  58   26   59 1
  59   27   28 2
  60   27   29 1
  61   29   60 1
  62   30   31 3

#	End of record

