#	Name: ASD01870340
#	Creating user name:	WinNT
#	Creation time:	15. 06. 2019 19:39

#	Modifying user name:	WinNT
#	Modification time:	15. 06. 2019 19:39

#	Program:	/corina/corina34_cracker 3.40 0067  02.08.2006

@<TRIPOS>MOLECULE
ASD01870340
  58   63    0    0    0
SMALL
NO_CHARGES


@<TRIPOS>ATOM
   1 C1            -0.0184     1.5028     0.0103 C.2     
   2 C2             0.0021    -0.0041     0.0020 C.3     
   3 O3             1.0236     2.1234     0.0037 O.2     
   4 C4             1.4195    -0.6046    -0.0147 C.3     
   5 N5             0.9103    -1.5777     0.9711 N.am    
   6 C6            -0.1399    -0.6336     1.3997 C.3     
   7 S7             1.3434    -3.1125     1.4172 S.o2    
   8 C8             2.5215    -2.9644     2.7191 C.ar    
   9 C9             2.2238    -3.4168     3.9689 C.ar    
  10 C10            3.1439    -3.3081     5.0102 C.ar    
  11 C11            4.3684    -2.7467     4.8107 C.ar    
  12 C12            4.7108    -2.2692     3.5358 C.ar    
  13 C13            3.7750    -2.3852     2.4752 C.ar    
  14 O14            0.1858    -3.7059     1.9892 O.2     
  15 O15            2.0369    -3.6715     0.3101 O.2     
  16 N16           -1.1946     2.1607     0.0195 N.am    
  17 C17           -1.3576     3.6197     0.0282 C.3     
  18 C18           -2.8639     3.9264     0.1072 C.3     
  19 C19           -3.4788     2.5880     0.6285 C.3     
  20 C20           -2.5266     1.5345     0.0160 C.3     
  21 C21           -3.1168     4.9076     1.2664 C.3     
  22 N22           -3.3584     4.1128     2.4825 N.3     
  23 C23           -3.2151     2.6818     2.1474 C.3     
  24 C24           -2.4817     4.4769     3.4978 C.ar    
  25 C25           -2.5517     3.8373     4.7315 C.ar    
  26 C26           -1.6733     4.2095     5.7328 C.ar    
  27 C27           -0.7507     5.2127     5.4660 C.ar    
  28 C28           -0.7371     5.8045     4.2192 C.ar    
  29 N29           -1.5838     5.4254     3.2807 N.ar    
  30 C30            5.9579    -1.6809     3.2698 C.ar    
  31 N31            6.2327    -1.2489     2.0614 N.ar    
  32 C32            5.3752    -1.3403     1.0540 C.ar    
  33 C33            4.1427    -1.8988     1.2073 C.ar    
  34 H34           -0.6656    -0.4340    -0.7447 H       
  35 H35            1.6963    -1.0509    -0.9699 H       
  36 H36            2.1843     0.0632     0.3818 H       
  37 H37            0.1668     0.0258     2.2117 H       
  38 H38           -1.1082    -1.1029     1.5738 H       
  39 H39            1.2598    -3.8664     4.1561 H       
  40 H40            2.8813    -3.6749     5.9914 H       
  41 H41            5.0708    -2.6690     5.6274 H       
  42 H42           -0.8491     4.0426     0.8946 H       
  43 H43           -0.9425     4.0428    -0.8866 H       
  44 H44           -3.2842     4.2535    -0.8438 H       
  45 H45           -4.5247     2.4427     0.3582 H       
  46 H46           -2.8345     1.2948    -1.0018 H       
  47 H47           -2.5167     0.6336     0.6295 H       
  48 H48           -2.2436     5.5442     1.4086 H       
  49 H49           -3.9904     5.5214     1.0467 H       
  50 H50           -3.9489     2.0906     2.6952 H       
  51 H51           -2.2061     2.3396     2.3772 H       
  52 H52           -3.2823     3.0611     4.9050 H       
  53 H53           -1.7044     3.7311     6.7006 H       
  54 H54           -0.0511     5.5267     6.2266 H       
  55 H55           -0.0212     6.5850     4.0075 H       
  56 H56            6.6895    -1.5838     4.0584 H       
  57 H57            5.6640    -0.9647     0.0835 H       
  58 H58            3.4596    -1.9632     0.3732 H       
@<TRIPOS>BOND
   1    1    2 1
   2    1    3 2
   3    1   16 am
   4    2    4 1
   5    2    6 1
   6    2   34 1
   7    4    5 1
   8    4   35 1
   9    4   36 1
  10    5    6 1
  11    5    7 am
  12    6   37 1
  13    6   38 1
  14    7    8 1
  15    7   14 2
  16    7   15 2
  17    8    9 ar
  18    8   13 ar
  19    9   10 ar
  20    9   39 1
  21   10   11 ar
  22   10   40 1
  23   11   12 ar
  24   11   41 1
  25   12   13 ar
  26   12   30 ar
  27   13   33 ar
  28   16   17 1
  29   16   20 1
  30   17   18 1
  31   17   42 1
  32   17   43 1
  33   18   19 1
  34   18   21 1
  35   18   44 1
  36   19   20 1
  37   19   23 1
  38   19   45 1
  39   20   46 1
  40   20   47 1
  41   21   22 1
  42   21   48 1
  43   21   49 1
  44   22   23 1
  45   22   24 1
  46   23   50 1
  47   23   51 1
  48   24   25 ar
  49   24   29 ar
  50   25   26 ar
  51   25   52 1
  52   26   27 ar
  53   26   53 1
  54   27   28 ar
  55   27   54 1
  56   28   29 ar
  57   28   55 1
  58   30   31 ar
  59   30   56 1
  60   31   32 ar
  61   32   33 ar
  62   32   57 1
  63   33   58 1

#	End of record

