#	Name: ASD01811871
#	Creating user name:	WinNT
#	Creation time:	15. 06. 2019 19:27

#	Modifying user name:	WinNT
#	Modification time:	15. 06. 2019 19:27

#	Program:	/corina/corina34_cracker 3.40 0067  02.08.2006

@<TRIPOS>MOLECULE
ASD01811871
  57   61    0    0    0
SMALL
NO_CHARGES


@<TRIPOS>ATOM
   1 C1            -0.0166     1.3737     0.0096 C.ar    
   2 C2             0.0021    -0.0041     0.0020 C.ar    
   3 C3             1.2090    -0.6875    -0.0132 C.ar    
   4 C4             2.4043    -0.0018    -0.0205 C.ar    
   5 C5             1.1837     2.0793     0.0019 C.ar    
   6 C6             1.5294     3.5127     0.0058 C.2     
   7 C7             2.4065     1.3890    -0.0130 C.ar    
   8 N8             3.4137     2.3319    -0.0176 N.pl3   
   9 C9             2.8913     3.5818    -0.0070 C.2     
  10 C10            0.5916     4.6434     0.0203 C.2     
  11 O11           -0.6077     4.4390     0.0305 O.2     
  12 N12            1.0599     5.9073     0.0222 N.am    
  13 C13            4.8460     2.0247    -0.0321 C.3     
  14 C14            5.2983     1.8051    -1.4527 C.ar    
  15 C15            5.6650     0.3333    -3.3056 C.ar    
  16 C16            5.2507     0.5378    -2.0039 C.ar    
  17 C17            5.7549     2.8723    -2.2043 C.ar    
  18 C18            6.1697     2.6742    -3.5067 C.ar    
  19 C19            6.1284     1.4020    -4.0611 C.ar    
  20 N20            6.5496     1.1976    -5.3824 N.pl3   
  21 C21            7.0201     2.1462    -6.2235 C.2     
  22 C22            7.3167     1.5442    -7.3985 C.2     
  23 C23            7.0180     0.1830    -7.2726 C.2     
  24 N24            6.5633    -0.0265    -6.0634 N.2     
  25 C25            0.1247     7.0349     0.0366 C.3     
  26 C26           -0.5858     9.7478     0.8842 C.3     
  27 C27           -0.1769     9.4427    -0.5582 C.3     
  28 C28            0.7997     8.2651    -0.5732 C.3     
  29 C29           -0.2842     7.3400     1.4790 C.3     
  30 C30           -1.2608     8.5176     1.4941 C.3     
  31 O31            1.1816     7.9801    -1.9205 O.3     
  32 H32           -0.9576     1.9037     0.0169 H       
  33 H33           -0.9272    -0.5543     0.0083 H       
  34 H34            1.2120    -1.7675    -0.0190 H       
  35 H35            3.3384    -0.5437    -0.0316 H       
  36 H36            3.4669     4.4956    -0.0083 H       
  37 H37            2.0161     6.0702     0.0141 H       
  38 H38            5.4005     2.8571     0.4012 H       
  39 H39            5.0301     1.1226     0.5514 H       
  40 H40            5.6280    -0.6568    -3.7354 H       
  41 H41            4.8896    -0.2930    -1.4159 H       
  42 H42            5.7867     3.8617    -1.7725 H       
  43 H43            6.5254     3.5082    -4.0935 H       
  44 H44            7.1377     3.1959    -5.9980 H       
  45 H45            7.7138     2.0288    -8.2782 H       
  46 H46            7.1447    -0.5664    -8.0399 H       
  47 H47           -0.7607     6.7801    -0.5459 H       
  48 H48            0.2996    10.0026     1.4667 H       
  49 H49           -1.2816    10.5868     0.8949 H       
  50 H50           -1.0623     9.1879    -1.1407 H       
  51 H51            0.3040    10.3191    -0.9927 H       
  52 H52            1.6851     8.5199     0.0092 H       
  53 H53           -0.7650     6.4636     1.9135 H       
  54 H54            0.6012     7.5948     2.0615 H       
  55 H55           -1.5521     8.7350     2.5217 H       
  56 H56           -2.1462     8.2628     0.9116 H       
  57 H57            1.6166     8.7173    -2.3703 H       
@<TRIPOS>BOND
   1    1    2 ar
   2    1    5 ar
   3    1   32 1
   4    2    3 ar
   5    2   33 1
   6    3    4 ar
   7    3   34 1
   8    4    7 ar
   9    4   35 1
  10    5    7 ar
  11    5    6 1
  12    6    9 2
  13    6   10 1
  14    7    8 1
  15    8    9 1
  16    8   13 1
  17    9   36 1
  18   10   11 2
  19   10   12 am
  20   12   25 1
  21   12   37 1
  22   13   14 1
  23   13   38 1
  24   13   39 1
  25   14   17 ar
  26   14   16 ar
  27   15   16 ar
  28   15   19 ar
  29   15   40 1
  30   16   41 1
  31   17   18 ar
  32   17   42 1
  33   18   19 ar
  34   18   43 1
  35   19   20 1
  36   20   21 1
  37   20   24 1
  38   21   22 2
  39   21   44 1
  40   22   23 1
  41   22   45 1
  42   23   24 2
  43   23   46 1
  44   25   29 1
  45   25   28 1
  46   25   47 1
  47   26   27 1
  48   26   30 1
  49   26   48 1
  50   26   49 1
  51   27   28 1
  52   27   50 1
  53   27   51 1
  54   28   31 1
  55   28   52 1
  56   29   30 1
  57   29   53 1
  58   29   54 1
  59   30   55 1
  60   30   56 1
  61   31   57 1

#	End of record

