#	Name: ASD00840537
#	Creating user name:	WinNT
#	Creation time:	15. 06. 2019 18:39

#	Modifying user name:	WinNT
#	Modification time:	15. 06. 2019 18:39

#	Program:	/corina/corina34_cracker 3.40 0067  02.08.2006

@<TRIPOS>MOLECULE
ASD00840537
  89   94    0    0    0
SMALL
NO_CHARGES


@<TRIPOS>ATOM
   1 N1             1.0875     1.4619    -0.7333 N.ar    
   2 C2             1.3452     0.1697    -0.8463 C.ar    
   3 C3             1.2544    -0.6693     0.2572 C.ar    
   4 C4             0.8898    -0.1355     1.4806 C.ar    
   5 C5             0.6275     1.2257     1.5574 C.ar    
   6 C6             0.7375     1.9999     0.4198 C.ar    
   7 C7             1.5486    -2.1413     0.1235 C.3     
   8 C8             1.2546    -2.8610     1.4225 C.2     
   9 C9             0.7344    -2.7474    -1.0213 C.3     
  10 C10           -0.7285    -2.4565    -0.8063 C.2     
  11 N11           -1.6489    -2.9752    -1.6431 N.am    
  12 O12           -1.0777    -1.7555     0.1198 O.2     
  13 C13           -3.0697    -2.6160    -1.5190 C.3     
  14 C14           -3.5813    -2.1714    -2.8933 C.3     
  15 N15           -3.2892    -3.2171    -3.8828 N.3     
  16 C16           -1.8419    -3.4199    -4.0323 C.3     
  17 C17           -1.2583    -3.9110    -2.7085 C.3     
  18 C18           -3.9138    -2.9077    -5.1759 C.3     
  19 C19           -3.4869    -3.9502    -6.2129 C.3     
  20 C20           -4.1882    -3.6580    -7.5413 C.3     
  21 N21           -5.6433    -3.7010    -7.3480 N.3     
  22 C22           -6.0823    -2.6768    -6.3916 C.3     
  23 C23           -5.4375    -2.9397    -5.0288 C.3     
  24 C24           -6.3489    -3.5621    -8.6289 C.3     
  25 O25            0.1785    -2.9359     1.9770 O.2     
  26 N26            2.4099    -3.4009     1.8460 N.am    
  27 C27            3.0267    -2.3681    -0.0962 C.ar    
  28 C28            3.4690    -3.1304     0.9780 C.ar    
  29 C29            3.8960    -1.9757    -1.0890 C.ar    
  30 C30            5.2301    -2.3414    -1.0237 C.ar    
  31 C31            5.6839    -3.1017     0.0424 C.ar    
  32 C32            4.8118    -3.4958     1.0391 C.ar    
  33 Cl33           6.3301    -1.8497    -2.2734 Cl      
  34 F34            6.9851    -3.4593     0.1075 F       
  35 C35            2.2646    -5.9713     2.8188 C.ar    
  36 C36            3.3158    -6.7821     2.4336 C.ar    
  37 C37            0.9825    -6.4845     2.8807 C.ar    
  38 C38            0.7517    -7.8085     2.5574 C.ar    
  39 C39            1.8028    -8.6193     2.1718 C.ar    
  40 C40            3.0849    -8.1060     2.1099 C.ar    
  41 H41            1.6225    -9.6537     1.9192 H       
  42 H42            4.3174    -6.3811     2.3852 H       
  43 C43           -7.8362    -3.8588    -8.4267 C.3     
  44 C44           -8.5711    -3.7142    -9.7608 C.3     
  45 S45            2.5599    -4.2855     3.2378 S.o2    
  46 O46            3.9254    -4.2008     3.6219 O.2     
  47 O47            1.4887    -3.8885     4.0830 O.2     
  48 O48            1.7014    -0.3415    -2.0516 O.3     
  49 C49            2.2102    -0.1680    -4.4077 C.3     
  50 C50            1.6694     0.5488    -3.1689 C.3     
  51 H51            0.8106    -0.7634     2.3557 H       
  52 H52            0.3402     1.6740     2.4970 H       
  53 H53            0.5350     3.0593     0.4742 H       
  54 H54            1.0564    -2.3112    -1.9669 H       
  55 H55            0.8904    -3.8259    -1.0469 H       
  56 H56           -3.6380    -3.4818    -1.1793 H       
  57 H57           -3.1799    -1.7993    -0.8055 H       
  58 H58           -4.6577    -2.0068    -2.8450 H       
  59 H59           -3.0842    -1.2460    -3.1846 H       
  60 H60           -1.6569    -4.1609    -4.8100 H       
  61 H61           -1.3691    -2.4772    -4.3077 H       
  62 H62           -0.1715    -3.9531    -2.7807 H       
  63 H63           -1.6515    -4.9015    -2.4799 H       
  64 H64           -3.5993    -1.9171    -5.5045 H       
  65 H65           -2.4070    -3.9029    -6.3533 H       
  66 H66           -3.7660    -4.9449    -5.8651 H       
  67 H67           -3.8979    -2.6689    -7.8954 H       
  68 H68           -3.8975    -4.4070    -8.2779 H       
  69 H69           -5.7831    -1.6922    -6.7510 H       
  70 H70           -7.1672    -2.7131    -6.2931 H       
  71 H71           -5.7473    -3.9184    -4.6624 H       
  72 H72           -5.7513    -2.1703    -4.3233 H       
  73 H73           -6.2287    -2.5449    -9.0015 H       
  74 H74           -5.9331    -4.2650    -9.3508 H       
  75 H75            3.5378    -1.3836    -1.9181 H       
  76 H76            5.1720    -4.0879     1.8674 H       
  77 H77            0.1612    -5.8511     3.1819 H       
  78 H78           -0.2499    -8.2097     2.6065 H       
  79 H79            3.9062    -8.7395     1.8089 H       
  80 H80           -7.9564    -4.8760    -8.0540 H       
  81 H81           -8.2520    -3.1559    -7.7047 H       
  82 H82           -9.6307    -3.9255    -9.6167 H       
  83 H83           -8.4509    -2.6969   -10.1334 H       
  84 H84           -8.1553    -4.4171   -10.4827 H       
  85 H85            1.5438    -0.9889    -4.6724 H       
  86 H86            2.2677     0.5355    -5.2384 H       
  87 H87            3.2043    -0.5611    -4.1951 H       
  88 H88            0.6427     0.8657    -3.3517 H       
  89 H89            2.2866     1.4216    -2.9558 H       
@<TRIPOS>BOND
   1    1    2 ar
   2    1    6 ar
   3    2    3 ar
   4    2   48 1
   5    3    4 ar
   6    3    7 1
   7    4    5 ar
   8    4   51 1
   9    5    6 ar
  10    5   52 1
  11    6   53 1
  12    7    8 1
  13    7    9 1
  14    7   27 1
  15    8   25 2
  16    8   26 am
  17    9   10 1
  18    9   54 1
  19    9   55 1
  20   10   11 am
  21   10   12 2
  22   11   13 1
  23   11   17 1
  24   13   14 1
  25   13   56 1
  26   13   57 1
  27   14   15 1
  28   14   58 1
  29   14   59 1
  30   15   16 1
  31   15   18 1
  32   16   17 1
  33   16   60 1
  34   16   61 1
  35   17   62 1
  36   17   63 1
  37   18   19 1
  38   18   23 1
  39   18   64 1
  40   19   20 1
  41   19   65 1
  42   19   66 1
  43   20   21 1
  44   20   67 1
  45   20   68 1
  46   21   22 1
  47   21   24 1
  48   22   23 1
  49   22   69 1
  50   22   70 1
  51   23   71 1
  52   23   72 1
  53   24   43 1
  54   24   73 1
  55   24   74 1
  56   26   45 am
  57   26   28 1
  58   27   28 ar
  59   27   29 ar
  60   28   32 ar
  61   29   30 ar
  62   29   75 1
  63   30   31 ar
  64   30   33 1
  65   31   32 ar
  66   31   34 1
  67   32   76 1
  68   35   36 ar
  69   35   37 ar
  70   35   45 1
  71   36   42 1
  72   36   40 ar
  73   37   38 ar
  74   37   77 1
  75   38   39 ar
  76   38   78 1
  77   39   40 ar
  78   39   41 1
  79   40   79 1
  80   43   44 1
  81   43   80 1
  82   43   81 1
  83   44   82 1
  84   44   83 1
  85   44   84 1
  86   45   46 2
  87   45   47 2
  88   48   50 1
  89   49   50 1
  90   49   85 1
  91   49   86 1
  92   49   87 1
  93   50   88 1
  94   50   89 1

#	End of record

