#	Name: ASD01815867
#	Creating user name:	WinNT
#	Creation time:	15. 06. 2019 19:34

#	Modifying user name:	WinNT
#	Modification time:	15. 06. 2019 19:34

#	Program:	/corina/corina34_cracker 3.40 0067  02.08.2006

@<TRIPOS>MOLECULE
ASD01815867
  47   51    0    0    0
SMALL
NO_CHARGES


@<TRIPOS>ATOM
   1 C1            -0.0167     1.3813     0.0096 C.ar    
   2 C2             0.0021    -0.0041     0.0020 C.ar    
   3 C3             1.1983    -0.6909    -0.0131 C.ar    
   4 C4             2.4015     0.0060    -0.0204 C.ar    
   5 C5             2.3790     1.4106    -0.0127 C.ar    
   6 C6             1.1663     2.0916     0.0022 C.ar    
   7 N7             3.6053    -0.6771    -0.0347 N.pl3   
   8 C8             4.7970    -0.0585    -0.0423 C.2     
   9 C9             4.9000     1.3103    -0.0359 C.2     
  10 C10            3.6670     2.1302    -0.0207 C.2     
  11 C11            5.9971     2.2730    -0.0408 C.2     
  12 N12            5.4245     3.4961    -0.0295 N.am    
  13 N13            4.0322     3.3798    -0.0176 N.2     
  14 C14            6.1236     4.7035    -0.0291 C.ar    
  15 O15            7.1912     2.0231    -0.0528 O.2     
  16 C16            3.5779    -2.1419    -0.0413 C.3     
  17 C17            3.5554    -2.6375    -1.4643 C.ar    
  18 C18            4.7430    -2.8868    -2.1271 C.ar    
  19 C19            4.7251    -3.3411    -3.4315 C.ar    
  20 C20            3.5142    -3.5472    -4.0765 C.ar    
  21 C21            2.3240    -3.2963    -3.4093 C.ar    
  22 C22            2.3472    -2.8475    -2.1030 C.ar    
  23 N23            7.4472     4.6950    -0.0406 N.ar    
  24 C24            5.4234     5.9048    -0.0225 C.ar    
  25 C25            6.1291     7.0950    -0.0223 C.ar    
  26 C26            7.5165     7.0424    -0.0287 C.ar    
  27 C27            8.1464     5.8135    -0.0407 C.ar    
  28 O28            3.4940    -3.9937    -5.3599 O.3     
  29 C29            2.2113    -4.1834    -5.9607 C.3     
  30 H30           -0.9602     1.9068     0.0170 H       
  31 H31           -0.9288    -0.5516     0.0083 H       
  32 H32            1.2004    -1.7709    -0.0189 H       
  33 H33            1.1506     3.1715     0.0077 H       
  34 H34            5.6983    -0.6535    -0.0534 H       
  35 H35            4.4656    -2.5241     0.4626 H       
  36 H36            2.6860    -2.4909     0.4791 H       
  37 H37            5.6854    -2.7258    -1.6247 H       
  38 H38            5.6530    -3.5354    -3.9490 H       
  39 H39            1.3801    -3.4560    -3.9092 H       
  40 H40            1.4210    -2.6520    -1.5831 H       
  41 H41            4.3435     5.9088    -0.0180 H       
  42 H42            5.6124     8.0433    -0.0176 H       
  43 H43            8.0970     7.9531    -0.0290 H       
  44 H44            9.2254     5.7676    -0.0454 H       
  45 H45            1.6716    -3.2364    -5.9715 H       
  46 H46            2.3380    -4.5410    -6.9825 H       
  47 H47            1.6460    -4.9173    -5.3863 H       
@<TRIPOS>BOND
   1    1    2 ar
   2    1    6 ar
   3    1   30 1
   4    2    3 ar
   5    2   31 1
   6    3    4 ar
   7    3   32 1
   8    4    5 ar
   9    4    7 1
  10    5    6 ar
  11    5   10 1
  12    6   33 1
  13    7    8 1
  14    7   16 1
  15    8    9 2
  16    8   34 1
  17    9   10 1
  18    9   11 1
  19   10   13 2
  20   11   12 am
  21   11   15 2
  22   12   13 1
  23   12   14 1
  24   14   23 ar
  25   14   24 ar
  26   16   17 1
  27   16   35 1
  28   16   36 1
  29   17   18 ar
  30   17   22 ar
  31   18   19 ar
  32   18   37 1
  33   19   20 ar
  34   19   38 1
  35   20   21 ar
  36   20   28 1
  37   21   22 ar
  38   21   39 1
  39   22   40 1
  40   23   27 ar
  41   24   25 ar
  42   24   41 1
  43   25   26 ar
  44   25   42 1
  45   26   27 ar
  46   26   43 1
  47   27   44 1
  48   28   29 1
  49   29   45 1
  50   29   46 1
  51   29   47 1

#	End of record

