#	Name: ASD00171052
#	Creating user name:	WinNT
#	Creation time:	15. 06. 2019 18:32

#	Modifying user name:	WinNT
#	Modification time:	15. 06. 2019 18:32

#	Program:	/corina/corina34_cracker 3.40 0067  02.08.2006

@<TRIPOS>MOLECULE
ASD00171052
  51   54    0    0    0
SMALL
NO_CHARGES


@<TRIPOS>ATOM
   1 C1            -0.0337     1.2214     0.0653 C.ar    
   2 C2             0.0160    -0.1702     0.0686 C.ar    
   3 C3            -1.1387    -0.8994     0.0762 C.ar    
   4 C4            -2.3789    -0.2491     0.0808 C.ar    
   5 C5            -2.4316     1.1512     0.0780 C.ar    
   6 C6            -1.2636     1.8790     0.0756 C.ar    
   7 Cl7           -1.3211     3.6140     0.0721 Cl      
   8 C8            -3.6210    -1.0326     0.0880 C.2     
   9 C9            -4.8166    -0.4034     0.0924 C.2     
  10 C10           -6.0527    -1.1831     0.0996 C.2     
  11 N11           -7.2423    -0.5593     0.2096 N.am    
  12 O12           -6.0078    -2.3961     0.0062 O.2     
  13 C13           -7.3081     0.8908     0.4395 C.3     
  14 C14           -8.1688     1.5230    -0.6612 C.3     
  15 N15           -9.4235     0.7655    -0.7696 N.am    
  16 C16           -9.3577    -0.6846    -0.9995 C.3     
  17 C17           -8.4971    -1.3159     0.0957 C.3     
  18 S18            1.4613     2.1540     0.0555 S.3     
  19 C19            2.7034     0.9132     0.2042 C.ar    
  20 C20          -10.6131     1.3893    -0.6596 C.2     
  21 C21          -11.8880     0.5857    -0.6573 C.3     
  22 O22          -10.6576     2.5974    -0.5623 O.2     
  23 C23            3.3172     0.4048    -0.9333 C.ar    
  24 C24            4.2932    -0.5704    -0.8154 C.ar    
  25 C25            4.6576    -1.0395     0.4445 C.ar    
  26 C26            4.0428    -0.5301     1.5770 C.ar    
  27 C27            3.0733     0.4471     1.4596 C.ar    
  28 O28            5.0360    -1.2240    -1.7560 O.3     
  29 C29            6.1438    -1.8002    -1.0393 C.3     
  30 O30            5.6294    -1.9876     0.2923 O.3     
  31 H31            0.9709    -0.6746     0.0647 H       
  32 H32           -1.0954    -1.9786     0.0784 H       
  33 H33           -3.3856     1.6575     0.0815 H       
  34 H34           -3.5787    -2.1118     0.0898 H       
  35 H35           -4.8588     0.6758     0.0906 H       
  36 H36           -7.7573     1.0868     1.4131 H       
  37 H37           -6.3035     1.3124     0.4059 H       
  38 H38           -8.3882     2.5593    -0.4042 H       
  39 H39           -7.6349     1.4842    -1.6107 H       
  40 H40          -10.3623    -1.1062    -0.9659 H       
  41 H41           -8.9085    -0.8806    -1.9731 H       
  42 H42           -8.2785    -2.3521    -0.1626 H       
  43 H43           -9.0288    -1.2777     1.0464 H       
  44 H44          -11.6570    -0.4626    -0.8466 H       
  45 H45          -12.3757     0.6809     0.3128 H       
  46 H46          -12.5532     0.9577    -1.4365 H       
  47 H47            3.0331     0.7697    -1.9093 H       
  48 H48            4.3253    -0.8944     2.5536 H       
  49 H49            2.5960     0.8426     2.3440 H       
  50 H50            6.4280    -2.7566    -1.4782 H       
  51 H51            6.9915    -1.1151    -1.0295 H       
@<TRIPOS>BOND
   1    1    2 ar
   2    1   18 1
   3    1    6 ar
   4    2    3 ar
   5    2   31 1
   6    3    4 ar
   7    3   32 1
   8    4    5 ar
   9    4    8 1
  10    5    6 ar
  11    5   33 1
  12    6    7 1
  13    8    9 2
  14    8   34 1
  15    9   10 1
  16    9   35 1
  17   10   11 am
  18   10   12 2
  19   11   13 1
  20   11   17 1
  21   13   14 1
  22   13   36 1
  23   13   37 1
  24   14   15 1
  25   14   38 1
  26   14   39 1
  27   15   16 1
  28   15   20 am
  29   16   17 1
  30   16   40 1
  31   16   41 1
  32   17   42 1
  33   17   43 1
  34   18   19 1
  35   19   23 ar
  36   19   27 ar
  37   20   21 1
  38   20   22 2
  39   21   44 1
  40   21   45 1
  41   21   46 1
  42   23   24 ar
  43   23   47 1
  44   24   25 ar
  45   24   28 1
  46   25   26 ar
  47   25   30 1
  48   26   27 ar
  49   26   48 1
  50   27   49 1
  51   28   29 1
  52   29   30 1
  53   29   50 1
  54   29   51 1

#	End of record

