#	Name: ASD01940214
#	Creating user name:	WinNT
#	Creation time:	15. 06. 2019 20:12

#	Modifying user name:	WinNT
#	Modification time:	15. 06. 2019 20:12

#	Program:	/corina/corina34_cracker 3.40 0067  02.08.2006

@<TRIPOS>MOLECULE
ASD01940214
  48   49    0    0    0
SMALL
NO_CHARGES


@<TRIPOS>ATOM
   1 Br1            0.4665    -4.4359    -0.6161 Br      
   2 F2             1.4668     1.8715     2.6510 F       
   3 C3             0.8128     2.5656     1.6941 C.ar    
   4 C4             1.0918     2.3333     0.3539 C.ar    
   5 C5             0.4141     3.0516    -0.6299 C.ar    
   6 C6            -0.5355     3.9946    -0.2659 C.ar    
   7 C7            -0.8089     4.2220     1.0703 C.ar    
   8 C8            -0.1412     3.5059     2.0491 C.ar    
   9 N9             2.0527     1.3795    -0.0088 N.pl3   
  10 N10            0.6920     2.8217    -1.9840 N.am    
  11 C11            1.6871     0.0369    -0.1491 C.ar    
  12 C12            0.3587    -0.3407    -0.0084 C.ar    
  13 C13            0.0001    -1.6679    -0.1475 C.ar    
  14 C14            0.9628    -2.6210    -0.4267 C.ar    
  15 C15            2.2887    -2.2494    -0.5675 C.ar    
  16 C16            2.6532    -0.9226    -0.4357 C.ar    
  17 F17            3.9473    -0.5596    -0.5735 F       
  18 F18           -0.4166     3.7278     3.3530 F       
  19 S19            0.6726     4.0814    -3.0587 S.o2    
  20 O20            1.1557     3.5163    -4.2697 O.2     
  21 O21           -0.6474     4.5995    -2.9675 O.2     
  22 C22            0.8196     7.2912    -3.1271 C.3     
  23 C23            1.2270     8.5312    -2.3287 C.3     
  24 C24            1.6256     8.1167    -0.9109 C.3     
  25 C25            0.3560     7.7128    -4.5228 C.3     
  26 C26           -0.1683     6.4894    -5.2774 C.3     
  27 C27            1.8698     5.2675    -2.3876 C.3     
  28 O28            1.9388     6.4102    -3.2428 O.3     
  29 H29           -1.0615     4.5521    -1.0268 H       
  30 H30           -1.5483     4.9575     1.3511 H       
  31 H31            2.9713     1.6506    -0.1625 H       
  32 H32            0.8957     1.9246    -2.2917 H       
  33 H33           -0.3940     0.4024     0.2100 H       
  34 H34           -1.0333    -1.9615    -0.0376 H       
  35 H35            3.0381    -2.9959    -0.7852 H       
  36 H36            0.0059     6.7793    -2.6132 H       
  37 H37            2.0725     9.0159    -2.8168 H       
  38 H38            0.3877     9.2251    -2.2820 H       
  39 H39            0.8284     7.5186    -0.4696 H       
  40 H40            2.5426     7.5287    -0.9486 H       
  41 H41            1.7898     9.0074    -0.3046 H       
  42 H42           -0.4393     8.4528    -4.4334 H       
  43 H43            1.1944     8.1448    -5.0691 H       
  44 H44            0.6271     5.7494    -5.3668 H       
  45 H45           -1.0067     6.0574    -4.7311 H       
  46 H46           -0.4985     6.7898    -6.2717 H       
  47 H47            1.5546     5.5777    -1.3914 H       
  48 H48            2.8519     4.7983    -2.3283 H       
@<TRIPOS>BOND
   1    1   14 1
   2    2    3 1
   3    3    4 ar
   4    3    8 ar
   5    4    5 ar
   6    4    9 1
   7    5    6 ar
   8    5   10 1
   9    6    7 ar
  10    6   29 1
  11    7    8 ar
  12    7   30 1
  13    8   18 1
  14    9   11 1
  15    9   31 1
  16   10   19 am
  17   10   32 1
  18   11   12 ar
  19   11   16 ar
  20   12   13 ar
  21   12   33 1
  22   13   14 ar
  23   13   34 1
  24   14   15 ar
  25   15   16 ar
  26   15   35 1
  27   16   17 1
  28   19   20 2
  29   19   21 2
  30   19   27 1
  31   22   25 1
  32   22   28 1
  33   22   23 1
  34   22   36 1
  35   23   24 1
  36   23   37 1
  37   23   38 1
  38   24   39 1
  39   24   40 1
  40   24   41 1
  41   25   26 1
  42   25   42 1
  43   25   43 1
  44   26   44 1
  45   26   45 1
  46   26   46 1
  47   27   28 1
  48   27   47 1
  49   27   48 1

#	End of record

