#	Name: ASD01916841
#	Creating user name:	WinNT
#	Creation time:	15. 06. 2019 20:08

#	Modifying user name:	WinNT
#	Modification time:	15. 06. 2019 20:08

#	Program:	/corina/corina34_cracker 3.40 0067  02.08.2006

@<TRIPOS>MOLECULE
ASD01916841
  55   58    0    0    0
SMALL
NO_CHARGES


@<TRIPOS>ATOM
   1 C1            -0.0167     1.3810     0.0096 C.ar    
   2 C2             0.0021    -0.0041     0.0020 C.ar    
   3 C3            -1.1861    -0.7171     0.0091 C.ar    
   4 C4            -2.3933    -0.0497     0.0237 C.ar    
   5 C5            -2.4168     1.3437     0.0319 C.ar    
   6 C6            -1.2198     2.0567     0.0305 C.ar    
   7 C7            -3.7131     2.0660     0.0471 C.2     
   8 N8            -4.9251     1.4950     0.0543 N.2     
   9 N9            -3.8624     3.3724     0.0616 N.2     
  10 N10           -5.2446     3.6207     0.0724 N.pl3   
  11 C11           -5.8491     2.4191     0.0674 C.2     
  12 C12           -7.3369     2.1795     0.0747 C.3     
  13 C13           -5.8994     4.9311     0.0899 C.3     
  14 C14           -6.1330     5.3949    -1.3248 C.2     
  15 O15           -5.7865     4.6994    -2.2560 O.2     
  16 N16           -6.7268     6.5827    -1.5551 N.am    
  17 C17           -6.9642     7.0543    -2.9279 C.3     
  18 C18           -8.4352     7.4649    -3.0540 C.3     
  19 N19           -8.7620     8.4336    -1.9991 N.3     
  20 C20           -8.6181     7.8369    -0.6645 C.3     
  21 C21           -7.1602     7.4388    -0.4405 C.3     
  22 C22          -10.0391     8.9526    -2.1777 C.ar    
  23 C23          -10.5344     9.8904    -1.2771 C.ar    
  24 N24          -10.7713     8.5541    -3.2063 N.ar    
  25 C25          -11.8064    10.3988    -1.4671 C.ar    
  26 C26          -12.5436     9.9507    -2.5555 C.ar    
  27 C27          -11.9879     9.0222    -3.4123 C.ar    
  28 F28            1.1822    -0.6616    -0.0128 F       
  29 C29            1.2786     2.1512     0.0014 C.3     
  30 C30           -7.8492     2.1088    -1.3653 C.3     
  31 H31           -1.1669    -1.7969     0.0027 H       
  32 H32           -3.3189    -0.6062     0.0285 H       
  33 H33           -1.2336     3.1365     0.0372 H       
  34 H34           -7.5511     1.2394     0.5831 H       
  35 H35           -7.8340     2.9967     0.5974 H       
  36 H36           -6.8547     4.8530     0.6091 H       
  37 H37           -5.2625     5.6487     0.6071 H       
  38 H38           -6.3254     7.9126    -3.1358 H       
  39 H39           -6.7461     6.2525    -3.6334 H       
  40 H40           -8.6035     7.9196    -4.0302 H       
  41 H41           -9.0689     6.5844    -2.9483 H       
  42 H42           -8.9191     8.5614     0.0922 H       
  43 H43           -9.2493     6.9512    -0.5921 H       
  44 H44           -7.0698     6.8934     0.4989 H       
  45 H45           -6.5371     8.3327    -0.4095 H       
  46 H46           -9.9338    10.2167    -0.4410 H       
  47 H47          -12.2174    11.1277    -0.7843 H       
  48 H48          -13.5401    10.3279    -2.7319 H       
  49 H49          -12.5576     8.6712    -4.2600 H       
  50 H50            1.5811     2.3424    -1.0282 H       
  51 H51            1.1411     3.0991     0.5217 H       
  52 H52            2.0506     1.5691     0.5048 H       
  53 H53           -7.3521     1.2916    -1.8880 H       
  54 H54           -8.9253     1.9355    -1.3600 H       
  55 H55           -7.6350     3.0489    -1.8737 H       
@<TRIPOS>BOND
   1    1    2 ar
   2    1   29 1
   3    1    6 ar
   4    2    3 ar
   5    2   28 1
   6    3    4 ar
   7    3   31 1
   8    4    5 ar
   9    4   32 1
  10    5    6 ar
  11    5    7 1
  12    6   33 1
  13    7    8 1
  14    7    9 2
  15    8   11 2
  16    9   10 1
  17   10   11 1
  18   10   13 1
  19   11   12 1
  20   12   30 1
  21   12   34 1
  22   12   35 1
  23   13   14 1
  24   13   36 1
  25   13   37 1
  26   14   15 2
  27   14   16 am
  28   16   17 1
  29   16   21 1
  30   17   18 1
  31   17   38 1
  32   17   39 1
  33   18   19 1
  34   18   40 1
  35   18   41 1
  36   19   20 1
  37   19   22 1
  38   20   21 1
  39   20   42 1
  40   20   43 1
  41   21   44 1
  42   21   45 1
  43   22   23 ar
  44   22   24 ar
  45   23   25 ar
  46   23   46 1
  47   24   27 ar
  48   25   26 ar
  49   25   47 1
  50   26   27 ar
  51   26   48 1
  52   27   49 1
  53   29   50 1
  54   29   51 1
  55   29   52 1
  56   30   53 1
  57   30   54 1
  58   30   55 1

#	End of record

