#	Name: ASD09530003
#	Creating user name:	WinNT
#	Creation time:	15. 06. 2019 21:22

#	Modifying user name:	WinNT
#	Modification time:	15. 06. 2019 21:22

#	Program:	/corina/corina34_cracker 3.40 0067  02.08.2006

@<TRIPOS>MOLECULE
ASD09530003
  43   45    0    0    0
SMALL
NO_CHARGES


@<TRIPOS>ATOM
   1 N1            -0.3600     1.0231    -1.1186 N.am    
   2 C2            -0.6608    -0.3258    -1.6207 C.3     
   3 C3             0.4077    -1.2721    -1.1452 C.2     
   4 N4             1.5562    -0.8600    -0.6066 N.am    
   5 C5             1.8867     0.5307    -0.3277 C.3     
   6 C6             1.0408     1.4723    -1.1870 C.3     
   7 C7            -1.3279     1.8183    -0.6212 C.2     
   8 O8            -1.0522     2.9268    -0.2136 O.2     
   9 C9            -2.7527     1.3300    -0.5715 C.3     
  10 O10            0.2157    -2.4644    -1.2563 O.2     
  11 C11           -3.6437     2.4173     0.0326 C.3     
  12 C12           -5.0841     1.9787    -0.0301 C.ar    
  13 C13           -6.0358     2.8105    -0.5900 C.ar    
  14 C14           -7.3570     2.4088    -0.6479 C.ar    
  15 C15           -7.7270     1.1740    -0.1453 C.ar    
  16 C16           -6.7740     0.3420     0.4150 C.ar    
  17 C17           -5.4522     0.7425     0.4671 C.ar    
  18 C18           -3.2509     2.6479     1.4692 C.ar    
  19 C19           -2.9775     3.9280     1.9137 C.ar    
  20 C20           -2.6172     4.1401     3.2311 C.ar    
  21 C21           -2.5302     3.0710     4.1050 C.ar    
  22 C22           -2.8040     1.7901     3.6594 C.ar    
  23 C23           -3.1697     1.5799     2.3432 C.ar    
  24 Cl24          -9.3864     0.6690    -0.2170 Cl      
  25 Cl25          -2.0772     3.3366     5.7596 Cl      
  26 H26           -1.6301    -0.6490    -1.2409 H       
  27 H27           -0.6794    -0.3140    -2.7105 H       
  28 H28            2.2177    -1.5340    -0.3848 H       
  29 H29            1.6987     0.7400     0.7254 H       
  30 H30            2.9419     0.6990    -0.5433 H       
  31 H31            1.3877     1.4390    -2.2198 H       
  32 H32            1.1199     2.4900    -0.8045 H       
  33 H33           -3.0935     1.1004    -1.5810 H       
  34 H34           -2.8077     0.4319     0.0437 H       
  35 H35           -3.5206     3.3423    -0.5307 H       
  36 H36           -5.7469     3.7745    -0.9820 H       
  37 H37           -8.1005     3.0588    -1.0850 H       
  38 H38           -7.0623    -0.6220     0.8074 H       
  39 H39           -4.7075     0.0913     0.9004 H       
  40 H40           -3.0450     4.7624     1.2314 H       
  41 H41           -2.4032     5.1402     3.5782 H       
  42 H42           -2.7363     0.9551     4.3411 H       
  43 H43           -3.3877     0.5806     1.9964 H       
@<TRIPOS>BOND
   1    1    2 1
   2    1    6 1
   3    1    7 am
   4    2    3 1
   5    2   26 1
   6    2   27 1
   7    3    4 am
   8    3   10 2
   9    4    5 1
  10    4   28 1
  11    5    6 1
  12    5   29 1
  13    5   30 1
  14    6   31 1
  15    6   32 1
  16    7    8 2
  17    7    9 1
  18    9   11 1
  19    9   33 1
  20    9   34 1
  21   11   12 1
  22   11   18 1
  23   11   35 1
  24   12   13 ar
  25   12   17 ar
  26   13   14 ar
  27   13   36 1
  28   14   15 ar
  29   14   37 1
  30   15   16 ar
  31   15   24 1
  32   16   17 ar
  33   16   38 1
  34   17   39 1
  35   18   19 ar
  36   18   23 ar
  37   19   20 ar
  38   19   40 1
  39   20   21 ar
  40   20   41 1
  41   21   22 ar
  42   21   25 1
  43   22   23 ar
  44   22   42 1
  45   23   43 1

#	End of record

