#	Name: ASD01028233
#	Creating user name:	WinNT
#	Creation time:	15. 06. 2019 18:56

#	Modifying user name:	WinNT
#	Modification time:	15. 06. 2019 18:56

#	Program:	/corina/corina34_cracker 3.40 0067  02.08.2006

@<TRIPOS>MOLECULE
ASD01028233
  31   34    0    0    0
SMALL
NO_CHARGES


@<TRIPOS>ATOM
   1 C1            -0.0157     1.3066     0.0092 C.ar    
   2 N2             0.0021    -0.0041     0.0020 N.ar    
   3 C3             1.1590     2.0560     0.0020 C.ar    
   4 C4             2.3700     1.4248    -0.0129 C.ar    
   5 C5             2.3853     0.0171    -0.0205 C.ar    
   6 C6             1.1534    -0.6834    -0.0126 C.ar    
   7 C7             3.5916    -0.7008    -0.0353 C.ar    
   8 C8             3.5644    -2.0622    -0.0419 C.ar    
   9 C9             2.3546    -2.7530    -0.0346 C.ar    
  10 C10            1.1666    -2.0889    -0.0202 C.ar    
  11 C11            5.3051    -3.0955     1.3576 C.2     
  12 N12            4.9836    -4.1723     2.1065 N.pl3   
  13 C13            5.6071    -3.9915     3.3180 C.2     
  14 N14            6.2594    -2.8428     3.2455 N.2     
  15 N15            6.0781    -2.3242     2.0811 N.2     
  16 N16            4.2094    -5.3125     1.8829 N.2     
  17 C17            4.0701    -6.2154     2.8185 C.2     
  18 C18            4.6916    -6.0634     4.0667 C.2     
  19 C19            5.4554    -4.9659     4.3213 C.2     
  20 Cl20           3.1013    -7.6228     2.5113 Cl      
  21 C21            4.8600    -2.8318    -0.0578 C.3     
  22 H22           -0.9662     1.8194     0.0165 H       
  23 H23            1.1119     3.1349     0.0079 H       
  24 H24            3.2904     1.9898    -0.0190 H       
  25 H25            4.5357    -0.1763    -0.0418 H       
  26 H26            2.3595    -3.8330    -0.0408 H       
  27 H27            0.2377    -2.6397    -0.0140 H       
  28 H28            4.5647    -6.8196     4.8273 H       
  29 H29            5.9361    -4.8436     5.2807 H       
  30 H30            4.7131    -3.7799    -0.5751 H       
  31 H31            5.6221    -2.2496    -0.5758 H       
@<TRIPOS>BOND
   1    1    2 ar
   2    1    3 ar
   3    1   22 1
   4    2    6 ar
   5    3    4 ar
   6    3   23 1
   7    4    5 ar
   8    4   24 1
   9    5    6 ar
  10    5    7 ar
  11    6   10 ar
  12    7    8 ar
  13    7   25 1
  14    8    9 ar
  15    8   21 1
  16    9   10 ar
  17    9   26 1
  18   10   27 1
  19   11   12 1
  20   11   21 1
  21   11   15 2
  22   12   13 1
  23   12   16 1
  24   13   14 2
  25   13   19 1
  26   14   15 1
  27   16   17 2
  28   17   18 1
  29   17   20 1
  30   18   19 2
  31   18   28 1
  32   19   29 1
  33   21   30 1
  34   21   31 1

#	End of record

