#	Name: ASD02039292
#	Creating user name:	WinNT
#	Creation time:	15. 06. 2019 20:18

#	Modifying user name:	WinNT
#	Modification time:	15. 06. 2019 20:18

#	Program:	/corina/corina34_cracker 3.40 0067  02.08.2006

@<TRIPOS>MOLECULE
ASD02039292
  48   50    0    0    0
SMALL
NO_CHARGES


@<TRIPOS>ATOM
   1 C1             0.1358     1.1851    -0.3162 C.ar    
   2 C2             0.5179    -0.0930     0.0501 C.ar    
   3 C3            -0.3862    -1.1374    -0.0171 C.ar    
   4 C4            -1.6785    -0.9088    -0.4515 C.ar    
   5 C5            -2.0686     0.3797    -0.8224 C.ar    
   6 C6            -1.1528     1.4276    -0.7466 C.ar    
   7 C7            -3.4524     0.6329    -1.2897 C.ar    
   8 C8            -4.0231    -0.1707    -2.2819 C.ar    
   9 C9             1.1278     2.3170    -0.2391 C.3     
  10 N10            1.9438     2.3349    -1.4557 N.am    
  11 C11            1.4501     3.0091    -2.6590 C.3     
  12 C12            3.1487     1.7311    -1.4678 C.2     
  13 C13            3.6005     0.9646    -0.2936 C.2     
  14 C14            4.7333     0.2091    -0.2109 C.2     
  15 C15            2.4330     4.1082    -3.0673 C.3     
  16 N16            2.9683     0.8862     0.9052 N.2     
  17 C17            3.6611     0.1199     1.6972 C.2     
  18 N18            4.7639    -0.3180     1.0357 N.pl3   
  19 O19            3.8631     1.8190    -2.4482 O.2     
  20 C20            5.8001    -1.2025     1.5745 C.3     
  21 F21           -2.5613    -1.9293    -0.5176 F       
  22 C22            1.3200     1.9932    -3.7956 C.3     
  23 C23           -4.2051     1.6732    -0.7408 C.ar    
  24 N24           -5.4323     1.9028    -1.1502 N.ar    
  25 C25           -6.0044     1.1629    -2.0941 C.ar    
  26 C26           -5.3160     0.1023    -2.6858 C.ar    
  27 C27           -7.3450     1.4534    -2.5052 C.1     
  28 N28           -8.4085     1.6839    -2.8313 N.1     
  29 H29            1.5266    -0.2761     0.3898 H       
  30 H30           -0.0820    -2.1331     0.2699 H       
  31 H31           -1.4489     2.4263    -1.0317 H       
  32 H32           -3.4665    -0.9848    -2.7222 H       
  33 H33            0.5936     3.2626    -0.1460 H       
  34 H34            1.7723     2.1768     0.6287 H       
  35 H35            0.4753     3.4513    -2.4536 H       
  36 H36            5.4654     0.0597    -0.9907 H       
  37 H37            3.4237     3.6759    -3.2079 H       
  38 H38            2.1004     4.5651    -3.9993 H       
  39 H39            2.4752     4.8667    -2.2856 H       
  40 H40            3.4026    -0.1257     2.7166 H       
  41 H41            5.5319    -2.2400     1.3748 H       
  42 H42            6.7544    -0.9760     1.0990 H       
  43 H43            5.8848    -1.0497     2.6504 H       
  44 H44            0.5858     1.2351    -3.5231 H       
  45 H45            0.9963     2.5029    -4.7031 H       
  46 H46            2.2852     1.5180    -3.9704 H       
  47 H47           -3.7737     2.2959     0.0290 H       
  48 H48           -5.7869    -0.4951    -3.4525 H       
@<TRIPOS>BOND
   1    1    2 ar
   2    1    9 1
   3    1    6 ar
   4    2    3 ar
   5    2   29 1
   6    3    4 ar
   7    3   30 1
   8    4    5 ar
   9    4   21 1
  10    5    6 ar
  11    5    7 1
  12    6   31 1
  13    7   23 ar
  14    7    8 ar
  15    8   26 ar
  16    8   32 1
  17    9   10 1
  18    9   33 1
  19    9   34 1
  20   10   11 1
  21   10   12 am
  22   11   22 1
  23   11   15 1
  24   11   35 1
  25   12   13 1
  26   12   19 2
  27   13   14 2
  28   13   16 1
  29   14   18 1
  30   14   36 1
  31   15   37 1
  32   15   38 1
  33   15   39 1
  34   16   17 2
  35   17   18 1
  36   17   40 1
  37   18   20 1
  38   20   41 1
  39   20   42 1
  40   20   43 1
  41   22   44 1
  42   22   45 1
  43   22   46 1
  44   23   24 ar
  45   23   47 1
  46   24   25 ar
  47   25   26 ar
  48   25   27 1
  49   26   48 1
  50   27   28 3

#	End of record

