#	Name: ASD00310058
#	Creating user name:	WinNT
#	Creation time:	15. 06. 2019 18:33

#	Modifying user name:	WinNT
#	Modification time:	15. 06. 2019 18:33

#	Program:	/corina/corina34_cracker 3.40 0067  02.08.2006

@<TRIPOS>MOLECULE
ASD00310058
  43   45    0    0    0
SMALL
NO_CHARGES


@<TRIPOS>ATOM
   1 C1            -0.0184     1.5028     0.0103 C.2     
   2 C2             0.0021    -0.0041     0.0020 C.3     
   3 C3            -1.4117    -0.5257     0.0127 C.ar    
   4 C4            -2.0698    -0.7578    -1.1821 C.ar    
   5 C5            -3.3643    -1.2354    -1.1782 C.ar    
   6 C6            -4.0089    -1.4844     0.0324 C.ar    
   7 C7            -3.3410    -1.2492     1.2330 C.ar    
   8 C8            -2.0449    -0.7761     1.2173 C.ar    
   9 O9            -6.1593    -2.2886     1.2716 O.3     
  10 B10           -5.4820    -2.0273     0.0435 Du      
  11 O11           -6.1834    -2.2737    -1.1742 O.3     
  12 C12           -7.4924    -1.6909    -1.1845 C.3     
  13 C13           -8.2481    -2.1391     0.0700 C.3     
  14 C14           -7.4679    -1.7061     1.3147 C.3     
  15 C15           -9.6357    -1.4948     0.0875 C.3     
  16 C16           -8.3921    -3.6623     0.0621 C.3     
  17 N17            1.1395     2.1925     0.0030 N.am    
  18 C18            1.5271     3.6111     0.0069 C.3     
  19 C19            2.8237     3.2030    -0.7062 C.3     
  20 C20            2.5715     1.8576    -0.0059 C.3     
  21 O21           -1.0768     2.0948     0.0185 O.2     
  22 H22            0.5123    -0.3556    -0.8948 H       
  23 H23            0.5293    -0.3651     0.8851 H       
  24 H24           -1.5695    -0.5645    -2.1195 H       
  25 H25           -3.8773    -1.4155    -2.1113 H       
  26 H26           -3.8358    -1.4401     2.1738 H       
  27 H27           -1.5252    -0.5971     2.1469 H       
  28 H28           -7.4077    -0.6042    -1.1904 H       
  29 H29           -8.0316    -2.0208    -2.0724 H       
  30 H30           -7.9895    -2.0469     2.2090 H       
  31 H31           -7.3830    -0.6196     1.3322 H       
  32 H32          -10.1900    -1.8017    -0.7994 H       
  33 H33          -10.1733    -1.8141     0.9804 H       
  34 H34           -9.5324    -0.4098     0.0941 H       
  35 H35           -7.4033    -4.1207     0.0506 H       
  36 H36           -8.9300    -3.9810     0.9550 H       
  37 H37           -8.9457    -3.9704    -0.8249 H       
  38 H38            0.8770     4.2404    -0.6010 H       
  39 H39            1.6898     4.0139     1.0066 H       
  40 H40            2.7439     3.1669    -1.7927 H       
  41 H41            3.7116     3.7281    -0.3543 H       
  42 H42            3.0096     1.7980     0.9904 H       
  43 H43            2.8113     0.9928    -0.6247 H       
@<TRIPOS>BOND
   1    1    2 1
   2    1   17 am
   3    1   21 2
   4    2    3 1
   5    2   22 1
   6    2   23 1
   7    3    4 ar
   8    3    8 ar
   9    4    5 ar
  10    4   24 1
  11    5    6 ar
  12    5   25 1
  13    6    7 ar
  14    6   10 1
  15    7    8 ar
  16    7   26 1
  17    8   27 1
  18    9   10 1
  19    9   14 1
  20   10   11 1
  21   11   12 1
  22   12   13 1
  23   12   28 1
  24   12   29 1
  25   13   14 1
  26   13   15 1
  27   13   16 1
  28   14   30 1
  29   14   31 1
  30   15   32 1
  31   15   33 1
  32   15   34 1
  33   16   35 1
  34   16   36 1
  35   16   37 1
  36   17   18 1
  37   17   20 1
  38   18   19 1
  39   18   38 1
  40   18   39 1
  41   19   20 1
  42   19   40 1
  43   19   41 1
  44   20   42 1
  45   20   43 1

#	End of record

