#	Name: ASD00431166
#	Creating user name:	WinNT
#	Creation time:	15. 06. 2019 18:35

#	Modifying user name:	WinNT
#	Modification time:	15. 06. 2019 18:35

#	Program:	/corina/corina34_cracker 3.40 0067  02.08.2006

@<TRIPOS>MOLECULE
ASD00431166
  45   47    0    0    0
SMALL
NO_CHARGES


@<TRIPOS>ATOM
   1 C1             0.4737     1.3851     0.0703 C.2     
   2 N2             0.4998     0.0376     0.0731 N.am    
   3 O3             1.5156     2.0167    -0.0363 O.co2   
   4 O4            -0.5925     1.9763     0.1693 O.co2   
   5 C5             1.7762    -0.6706    -0.0515 C.3     
   6 C6             2.4237    -0.8014     1.3285 C.3     
   7 O7             0.5201    -2.8675    -0.3279 O.3     
   8 N8             0.5858    -3.9051    -0.9452 N.2     
   9 C9             1.6364    -3.9267    -1.7329 C.2     
  10 C10            2.2998    -2.6799    -1.5392 C.2     
  11 C11            1.5352    -2.0431    -0.6254 C.2     
  12 S12            3.4645    -5.0237    -3.6819 S.3     
  13 C13            3.0622    -6.5882    -4.2410 C.2     
  14 N14            1.9753    -7.0061    -3.6683 N.2     
  15 C15            1.4038    -6.1960    -2.8038 C.2     
  16 C16            2.0473    -5.0204    -2.6353 C.2     
  17 O17            3.7761    -7.2914    -5.1519 O.3     
  18 C18            3.3862    -8.5655    -5.4228 C.ar    
  19 C19            2.1784    -8.7998    -6.0637 C.ar    
  20 C20            1.7826   -10.0941    -6.3393 C.ar    
  21 C21            2.5928   -11.1595    -5.9754 C.ar    
  22 C22            3.8003   -10.9253    -5.3342 C.ar    
  23 C23            4.1989    -9.6308    -5.0636 C.ar    
  24 O24            2.2031   -12.4336    -6.2467 O.3     
  25 C25            3.1216   -13.4773    -5.9163 C.3     
  26 C26            2.3591   -14.7927    -5.7459 C.3     
  27 C27            4.1503   -13.6258    -7.0391 C.3     
  28 Cl28          -0.0535    -6.6028    -1.9526 Cl      
  29 H29           -0.3266    -0.4633     0.1576 H       
  30 H30            2.4388    -0.1117    -0.7123 H       
  31 H31            2.5980     0.1913     1.7436 H       
  32 H32            1.7611    -1.3603     1.9893 H       
  33 H33            3.3734    -1.3283     1.2357 H       
  34 H34            3.2039    -2.3266    -2.0126 H       
  35 H35            1.5473    -7.9703    -6.3468 H       
  36 H36            0.8421   -10.2766    -6.8379 H       
  37 H37            4.4309   -11.7549    -5.0505 H       
  38 H38            5.1411    -9.4483    -4.5683 H       
  39 H39            3.6326   -13.2304    -4.9857 H       
  40 H40            1.8481   -15.0396    -6.6765 H       
  41 H41            3.0597   -15.5888    -5.4938 H       
  42 H42            1.6263   -14.6869    -4.9460 H       
  43 H43            3.6393   -13.8727    -7.9697 H       
  44 H44            4.6935   -12.6887    -7.1605 H       
  45 H45            4.8509   -14.4219    -6.7870 H       
@<TRIPOS>BOND
   1    1    2 am
   2    1    3 ar
   3    1    4 ar
   4    2    5 1
   5    2   29 1
   6    5    6 1
   7    5   11 1
   8    5   30 1
   9    6   31 1
  10    6   32 1
  11    6   33 1
  12    7    8 1
  13    7   11 1
  14    8    9 2
  15    9   10 1
  16    9   16 1
  17   10   11 2
  18   10   34 1
  19   12   13 1
  20   12   16 1
  21   13   14 2
  22   13   17 1
  23   14   15 1
  24   15   16 2
  25   15   28 1
  26   17   18 1
  27   18   19 ar
  28   18   23 ar
  29   19   20 ar
  30   19   35 1
  31   20   21 ar
  32   20   36 1
  33   21   22 ar
  34   21   24 1
  35   22   23 ar
  36   22   37 1
  37   23   38 1
  38   24   25 1
  39   25   26 1
  40   25   27 1
  41   25   39 1
  42   26   40 1
  43   26   41 1
  44   26   42 1
  45   27   43 1
  46   27   44 1
  47   27   45 1

#	End of record

