#	Name: ASD01150049
#	Creating user name:	WinNT
#	Creation time:	15. 06. 2019 19:03

#	Modifying user name:	WinNT
#	Modification time:	15. 06. 2019 19:03

#	Program:	/corina/corina34_cracker 3.40 0067  02.08.2006

@<TRIPOS>MOLECULE
ASD01150049
  67   70    0    0    0
SMALL
NO_CHARGES


@<TRIPOS>ATOM
   1 C1             0.7468     0.0915    -3.8075 C.2     
   2 C2            -0.2080    -0.0490    -2.7955 C.2     
   3 N3            -1.0956     0.9483    -2.9357 N.2     
   4 C4            -0.7666     1.7025    -3.9608 C.2     
   5 N5             0.3692     1.2217    -4.5350 N.pl3   
   6 N6            -1.4621     2.8112    -4.3855 N.3     
   7 C7            -2.8884     2.6974    -4.0527 C.3     
   8 C8            -0.8869     4.0406    -3.8237 C.3     
   9 C9             1.0297     1.7545    -5.6491 C.ar    
  10 C10            2.3067     2.2832    -5.5139 C.ar    
  11 C11            2.9554     2.8080    -6.6145 C.ar    
  12 C12            2.3346     2.8073    -7.8501 C.ar    
  13 C13            1.0630     2.2816    -7.9881 C.ar    
  14 C14            0.4113     1.7501    -6.8925 C.ar    
  15 N15           -0.2331    -1.0193    -1.8433 N.2     
  16 C16            0.1274    -0.7395    -0.6094 C.2     
  17 C17            1.1735    -1.5431     0.0544 C.ar    
  18 N18           -0.4692     0.3002     0.0614 N.pl3   
  19 C19            1.8622    -0.7332    -4.0409 C.2     
  20 O20            2.6986    -0.4638    -5.0670 O.3     
  21 O21            2.0740    -1.6904    -3.3178 O.2     
  22 C22            3.8109    -1.3429    -5.2454 C.3     
  23 C23            3.3027    -2.7649    -5.4918 C.3     
  24 C24            4.6381    -0.8816    -6.4470 C.3     
  25 C25            4.6829    -1.3236    -3.9883 C.3     
  26 C26            2.4047    -1.7471    -0.5727 C.ar    
  27 C27            3.3776    -2.4980     0.0525 C.ar    
  28 C28            3.1359    -3.0495     1.3000 C.ar    
  29 C29            1.9167    -2.8512     1.9269 C.ar    
  30 C30            0.9379    -2.0975     1.3146 C.ar    
  31 Cl31           4.3658    -3.9937     2.0806 Cl      
  32 C32           -1.0971     1.4743    -0.5621 C.3     
  33 C33           -1.6059     2.3814     0.5780 C.3     
  34 C34           -0.7359     1.9429     1.7856 C.3     
  35 C35           -0.5916     0.4204     1.5257 C.3     
  36 H36           -3.0036     2.6123    -2.9721 H       
  37 H37           -3.4157     3.5837    -4.4056 H       
  38 H38           -3.3041     1.8118    -4.5332 H       
  39 H39            0.1508     4.1354    -4.1434 H       
  40 H40           -1.4555     4.9015    -4.1753 H       
  41 H41           -0.9292     3.9972    -2.7354 H       
  42 H42            2.7919     2.2843    -4.5490 H       
  43 H43            3.9484     3.2196    -6.5099 H       
  44 H44            2.8438     3.2185    -8.7092 H       
  45 H45            0.5807     2.2828    -8.9544 H       
  46 H46           -0.5817     1.3397    -7.0008 H       
  47 H47            2.6815    -2.7786    -6.3873 H       
  48 H48            4.1512    -3.4355    -5.6278 H       
  49 H49            2.7134    -3.0935    -4.6357 H       
  50 H50            5.0001     0.1314    -6.2715 H       
  51 H51            5.4865    -1.5522    -6.5830 H       
  52 H52            4.0169    -0.8953    -7.3425 H       
  53 H53            4.0936    -1.6523    -3.1323 H       
  54 H54            5.5314    -1.9942    -4.1244 H       
  55 H55            5.0450    -0.3106    -3.8128 H       
  56 H56            2.5942    -1.3179    -1.5455 H       
  57 H57            4.3299    -2.6568    -0.4315 H       
  58 H58            1.7342    -3.2841     2.8994 H       
  59 H59           -0.0122    -1.9433     1.8045 H       
  60 H60           -0.3636     2.0112    -1.1637 H       
  61 H61           -1.9331     1.1597    -1.1867 H       
  62 H62           -1.4352     3.4315     0.3408 H       
  63 H63           -2.6617     2.1964     0.7760 H       
  64 H64            0.2344     2.4393     1.7687 H       
  65 H65           -1.2521     2.1296     2.7273 H       
  66 H66           -1.4740    -0.1107     1.8827 H       
  67 H67            0.3057     0.0361     2.0108 H       
@<TRIPOS>BOND
   1    1    2 2
   2    1   19 1
   3    1    5 1
   4    2    3 1
   5    2   15 1
   6    3    4 2
   7    4    5 1
   8    4    6 1
   9    5    9 1
  10    6    7 1
  11    6    8 1
  12    7   36 1
  13    7   37 1
  14    7   38 1
  15    8   39 1
  16    8   40 1
  17    8   41 1
  18    9   10 ar
  19    9   14 ar
  20   10   11 ar
  21   10   42 1
  22   11   12 ar
  23   11   43 1
  24   12   13 ar
  25   12   44 1
  26   13   14 ar
  27   13   45 1
  28   14   46 1
  29   15   16 2
  30   16   17 1
  31   16   18 1
  32   17   26 ar
  33   17   30 ar
  34   18   32 1
  35   18   35 1
  36   19   20 1
  37   19   21 2
  38   20   22 1
  39   22   23 1
  40   22   24 1
  41   22   25 1
  42   23   47 1
  43   23   48 1
  44   23   49 1
  45   24   50 1
  46   24   51 1
  47   24   52 1
  48   25   53 1
  49   25   54 1
  50   25   55 1
  51   26   27 ar
  52   26   56 1
  53   27   28 ar
  54   27   57 1
  55   28   29 ar
  56   28   31 1
  57   29   30 ar
  58   29   58 1
  59   30   59 1
  60   32   33 1
  61   32   60 1
  62   32   61 1
  63   33   34 1
  64   33   62 1
  65   33   63 1
  66   34   35 1
  67   34   64 1
  68   34   65 1
  69   35   66 1
  70   35   67 1

#	End of record

