#	Name: ASD01948134
#	Creating user name:	WinNT
#	Creation time:	15. 06. 2019 20:13

#	Modifying user name:	WinNT
#	Modification time:	15. 06. 2019 20:13

#	Program:	/corina/corina34_cracker 3.40 0067  02.08.2006

@<TRIPOS>MOLECULE
ASD01948134
  52   55    0    0    0
SMALL
NO_CHARGES


@<TRIPOS>ATOM
   1 C1             1.8013     1.4214    -1.0464 C.ar    
   2 C2             1.6017     0.0483    -1.1451 C.ar    
   3 C3             1.7759    -0.5921    -2.3639 C.ar    
   4 C4             2.1475     0.1337    -3.4791 C.ar    
   5 C5             2.3470     1.5043    -3.3816 C.ar    
   6 C6             2.1675     2.1477    -2.1637 C.ar    
   7 N7             1.2251    -0.6884    -0.0138 N.pl3   
   8 C8             3.6367    -2.2791    -0.4396 C.2     
   9 C9             2.3575    -2.8703    -0.2911 C.2     
  10 C10            1.1564    -2.0650    -0.0783 C.2     
  11 N11            4.6941    -3.0990    -0.6382 N.am    
  12 F12            1.6320     2.0455     0.1398 F       
  13 C13            2.2451    -4.2666    -0.3501 C.2     
  14 N14            1.0190    -4.8535    -0.2084 N.am    
  15 C15           -0.0911    -4.1225    -0.0124 C.2     
  16 C16           -0.0540    -2.7273     0.0571 C.2     
  17 C17            4.5184    -4.4401    -0.6908 C.2     
  18 N18            3.3489    -5.0010    -0.5449 N.2     
  19 O19            3.7791    -1.0699    -0.3948 O.2     
  20 C20            0.9125    -6.3132    -0.2721 C.3     
  21 O21           -1.1629    -4.6934     0.1079 O.2     
  22 N22            2.7238     2.2383    -4.5116 N.pl3   
  23 C23            6.0359    -2.5328    -0.7971 C.3     
  24 C24            6.7067    -2.4183     0.5733 C.3     
  25 C25            8.0779    -1.7075     0.4539 C.3     
  26 O26            7.0580    -3.7221     1.0791 O.3     
  27 O27            8.7866    -2.2414     1.5980 O.3     
  28 C28            8.3450    -3.6056     1.7001 C.3     
  29 C29            8.2425    -4.0038     3.1739 C.3     
  30 C30            9.3429    -4.5234     0.9911 C.3     
  31 H31            1.6212    -1.6582    -2.4405 H       
  32 H32            2.2832    -0.3654    -4.4271 H       
  33 H33            2.3227     3.2138    -2.0880 H       
  34 H34            1.0128    -0.2305     0.8146 H       
  35 H35           -0.9640    -2.1676     0.2153 H       
  36 H36            5.3804    -5.0708    -0.8509 H       
  37 H37            1.0298    -6.7301     0.7282 H       
  38 H38           -0.0645    -6.5893    -0.6685 H       
  39 H39            1.6932    -6.7063    -0.9234 H       
  40 H40            2.8456     1.7896    -5.3630 H       
  41 H41            2.8632     3.1958    -4.4437 H       
  42 H42            6.6305    -3.1822    -1.4396 H       
  43 H43            5.9617    -1.5437    -1.2490 H       
  44 H44            6.0595    -1.8917     1.2746 H       
  45 H45            8.5781    -1.9781    -0.4760 H       
  46 H46            7.9653    -0.6263     0.5344 H       
  47 H47            7.8967    -5.0348     3.2484 H       
  48 H48            9.2221    -3.9143     3.6434 H       
  49 H49            7.5357    -3.3460     3.6797 H       
  50 H50            9.4196    -4.2356    -0.0574 H       
  51 H51           10.3202    -4.4327     1.4652 H       
  52 H52            8.9998    -5.5556     1.0604 H       
@<TRIPOS>BOND
   1    1    2 ar
   2    1   12 1
   3    1    6 ar
   4    2    3 ar
   5    2    7 1
   6    3    4 ar
   7    3   31 1
   8    4    5 ar
   9    4   32 1
  10    5    6 ar
  11    5   22 1
  12    6   33 1
  13    7   10 1
  14    7   34 1
  15    8    9 1
  16    8   19 2
  17    8   11 am
  18    9   10 1
  19    9   13 2
  20   10   16 2
  21   11   17 1
  22   11   23 1
  23   13   14 1
  24   13   18 1
  25   14   15 am
  26   14   20 1
  27   15   16 1
  28   15   21 2
  29   16   35 1
  30   17   18 2
  31   17   36 1
  32   20   37 1
  33   20   38 1
  34   20   39 1
  35   22   40 1
  36   22   41 1
  37   23   24 1
  38   23   42 1
  39   23   43 1
  40   24   25 1
  41   24   26 1
  42   24   44 1
  43   25   27 1
  44   25   45 1
  45   25   46 1
  46   26   28 1
  47   27   28 1
  48   28   29 1
  49   28   30 1
  50   29   47 1
  51   29   48 1
  52   29   49 1
  53   30   50 1
  54   30   51 1
  55   30   52 1

#	End of record

