#	Name: ASD04590003
#	Creating user name:	WinNT
#	Creation time:	15. 06. 2019 20:50

#	Modifying user name:	WinNT
#	Modification time:	15. 06. 2019 20:50

#	Program:	/corina/corina34_cracker 3.40 0067  02.08.2006

@<TRIPOS>MOLECULE
ASD04590003
  54   58    0    0    0
SMALL
NO_CHARGES


@<TRIPOS>ATOM
   1 C1            -0.0164     1.3600     0.0095 C.ar    
   2 C2             0.0021    -0.0041     0.0020 C.ar    
   3 C3             1.2111    -0.6979    -0.0131 C.ar    
   4 C4             2.4150     0.0178    -0.0072 C.ar    
   5 C5             2.4013     1.3915    -0.0069 C.ar    
   6 C6             1.1833     2.0788     0.0019 C.ar    
   7 N7             1.1900    -2.0908    -0.0540 N.pl3   
   8 C8             2.4427    -2.8741    -0.0234 C.3     
   9 C9             3.4640    -2.0572    -0.7943 C.3     
  10 C10            3.6861    -0.7520     0.0184 C.3     
  11 C11            4.8865    -2.6180    -0.8603 C.3     
  12 C12            5.7418    -1.3518    -1.1482 C.3     
  13 C13            4.9200    -0.1431    -0.6294 C.3     
  14 C14            2.8996    -3.0672     1.3996 C.ar    
  15 C15            3.7833    -4.0851     1.7104 C.ar    
  16 Cl16           4.4440     0.9256    -2.0013 Cl      
  17 S17            7.3234    -1.4546    -0.2658 S.3     
  18 C18            8.1869    -0.0271    -0.8325 C.ar    
  19 C19            9.4681     0.2423    -0.3669 C.ar    
  20 C20           10.1419     1.3621    -0.8132 C.ar    
  21 C21            9.5431     2.2148    -1.7224 C.ar    
  22 C22            8.2678     1.9498    -2.1880 C.ar    
  23 C23            7.5904     0.8291    -1.7506 C.ar    
  24 C24            2.4401    -2.2237     2.3937 C.ar    
  25 C25            2.8594    -2.4004     3.6989 C.ar    
  26 C26            3.7385    -3.4208     4.0110 C.ar    
  27 C27            4.2023    -4.2618     3.0173 C.ar    
  28 Cl28           4.3658    -5.1408     0.4615 Cl      
  29 C29            1.1642     3.5525     0.0026 C.2     
  30 O30            2.2085     4.1737    -0.0046 O.2     
  31 O31           -0.0115     4.2110     0.0111 O.3     
  32 N32           10.1097    -0.6695     0.6065 N.pl3   
  33 O33           11.2328    -0.4326     1.0142 O.2     
  34 O34            9.5146    -1.6567     1.0000 O.2     
  35 H35           -0.9596     1.8860     0.0168 H       
  36 H36           -0.9288    -0.5516     0.0082 H       
  37 H37            3.3311     1.9408    -0.0127 H       
  38 H38            0.3390    -2.5538    -0.1031 H       
  39 H39            2.2934    -3.8402    -0.5055 H       
  40 H40            3.0893    -1.8260    -1.7914 H       
  41 H41            3.9270    -1.0112     1.0494 H       
  42 H42            5.1693    -3.0668     0.0919 H       
  43 H43            4.9799    -3.3398    -1.6716 H       
  44 H44            5.9161    -1.2536    -2.2197 H       
  45 H45            5.4958     0.4182     0.1065 H       
  46 H46           11.1376     1.5723    -0.4515 H       
  47 H47           10.0723     3.0900    -2.0694 H       
  48 H48            7.8032     2.6180    -2.8980 H       
  49 H49            6.5949     0.6227    -2.1149 H       
  50 H50            1.7537    -1.4262     2.1505 H       
  51 H51            2.5004    -1.7408     4.4751 H       
  52 H52            4.0661    -3.5582     5.0309 H       
  53 H53            4.8890    -5.0588     3.2612 H       
  54 H54            0.0265     5.1773     0.0112 H       
@<TRIPOS>BOND
   1    1    2 ar
   2    1    6 ar
   3    1   35 1
   4    2    3 ar
   5    2   36 1
   6    3    4 ar
   7    3    7 1
   8    4    5 ar
   9    4   10 1
  10    5    6 ar
  11    5   37 1
  12    6   29 1
  13    7    8 1
  14    7   38 1
  15    8    9 1
  16    8   14 1
  17    8   39 1
  18    9   10 1
  19    9   11 1
  20    9   40 1
  21   10   13 1
  22   10   41 1
  23   11   12 1
  24   11   42 1
  25   11   43 1
  26   12   13 1
  27   12   17 1
  28   12   44 1
  29   13   16 1
  30   13   45 1
  31   14   15 ar
  32   14   24 ar
  33   15   28 1
  34   15   27 ar
  35   17   18 1
  36   18   19 ar
  37   18   23 ar
  38   19   20 ar
  39   19   32 1
  40   20   21 ar
  41   20   46 1
  42   21   22 ar
  43   21   47 1
  44   22   23 ar
  45   22   48 1
  46   23   49 1
  47   24   25 ar
  48   24   50 1
  49   25   26 ar
  50   25   51 1
  51   26   27 ar
  52   26   52 1
  53   27   53 1
  54   29   30 2
  55   29   31 1
  56   31   54 1
  57   32   33 2
  58   32   34 2

#	End of record

