#	Name: ASD01884972
#	Creating user name:	WinNT
#	Creation time:	15. 06. 2019 19:49

#	Modifying user name:	WinNT
#	Modification time:	15. 06. 2019 19:49

#	Program:	/corina/corina34_cracker 3.40 0067  02.08.2006

@<TRIPOS>MOLECULE
ASD01884972
  50   54    0    0    0
SMALL
NO_CHARGES


@<TRIPOS>ATOM
   1 C1             0.0395     1.4368    -0.2847 C.ar    
   2 C2             0.1460     0.1523    -0.7781 C.ar    
   3 C3            -0.9330    -0.4278    -1.4460 C.ar    
   4 C4            -2.1154     0.2926    -1.6126 C.ar    
   5 C5            -2.2158     1.5759    -1.1173 C.ar    
   6 C6            -1.1436     2.1497    -0.4485 C.ar    
   7 C7            -0.8226    -1.8063    -1.9775 C.2     
   8 C8            -1.6129    -2.8176    -1.4644 C.2     
   9 C9             0.0897    -2.0996    -3.0204 C.2     
  10 C10            0.1882    -3.3527    -3.5022 C.2     
  11 N11           -0.5845    -4.3588    -2.9975 N.pl3   
  12 C12           -1.4854    -4.1149    -1.9891 C.2     
  13 C13           -0.6952    -5.6860    -3.2816 C.2     
  14 N14           -1.6023    -6.1856    -2.4826 N.2     
  15 N15           -2.0765    -5.2678    -1.7155 N.2     
  16 C16            0.0846    -6.4413    -4.3268 C.3     
  17 C17           -0.0499    -7.9653    -4.3443 C.3     
  18 C18           -0.7082    -7.1265    -5.4416 C.3     
  19 O19           -1.2462     3.4144     0.0381 O.3     
  20 C20           -2.4480     4.0379    -0.0563 C.ar    
  21 C21           -3.4001     3.9102     0.9521 C.ar    
  22 C22           -4.6099     4.5604     0.8188 C.ar    
  23 N23           -4.8691     5.2945    -0.2465 N.ar    
  24 C24           -3.9929     5.4397    -1.2228 C.ar    
  25 C25           -2.7586     4.8267    -1.1618 C.ar    
  26 C26           -4.3432     6.2901    -2.4165 C.3     
  27 C27           -5.6514     5.7901    -3.0327 C.3     
  28 F28            1.0830     2.0000     0.3627 F       
  29 C29           -2.5964    -2.5332    -0.3585 C.3     
  30 F30           -3.8583    -2.2851    -0.9090 F       
  31 F31           -2.6695    -3.6384     0.4962 F       
  32 F32           -2.1742    -1.4121     0.3641 F       
  33 H33            1.0631    -0.4028    -0.6477 H       
  34 H34           -2.9519    -0.1540    -2.1295 H       
  35 H35           -3.1316     2.1336    -1.2465 H       
  36 H36            0.7083    -1.3151    -3.4307 H       
  37 H37            0.8868    -3.5647    -4.2980 H       
  38 H38            1.0551    -6.0183    -4.5862 H       
  39 H39            0.8324    -8.5452    -4.6152 H       
  40 H40           -0.7023    -8.4216    -3.5999 H       
  41 H41           -1.7938    -7.0310    -5.4190 H       
  42 H42           -0.2591    -7.1547    -6.4344 H       
  43 H43           -3.1945     3.3102     1.8263 H       
  44 H44           -5.3540     4.4669     1.5960 H       
  45 H45           -2.0461     4.9499    -1.9640 H       
  46 H46           -4.4628     7.3268    -2.1016 H       
  47 H47           -3.5451     6.2248    -3.1560 H       
  48 H48           -5.9048     6.4052    -3.8961 H       
  49 H49           -5.5318     4.7535    -3.3476 H       
  50 H50           -6.4496     5.8554    -2.2932 H       
@<TRIPOS>BOND
   1    1    2 ar
   2    1   28 1
   3    1    6 ar
   4    2    3 ar
   5    2   33 1
   6    3    4 ar
   7    3    7 1
   8    4    5 ar
   9    4   34 1
  10    5    6 ar
  11    5   35 1
  12    6   19 1
  13    7    8 2
  14    7    9 1
  15    8   29 1
  16    8   12 1
  17    9   10 2
  18    9   36 1
  19   10   11 1
  20   10   37 1
  21   11   12 1
  22   11   13 1
  23   12   15 2
  24   13   14 2
  25   13   16 1
  26   14   15 1
  27   16   18 1
  28   16   17 1
  29   16   38 1
  30   17   18 1
  31   17   39 1
  32   17   40 1
  33   18   41 1
  34   18   42 1
  35   19   20 1
  36   20   21 ar
  37   20   25 ar
  38   21   22 ar
  39   21   43 1
  40   22   23 ar
  41   22   44 1
  42   23   24 ar
  43   24   25 ar
  44   24   26 1
  45   25   45 1
  46   26   27 1
  47   26   46 1
  48   26   47 1
  49   27   48 1
  50   27   49 1
  51   27   50 1
  52   29   30 1
  53   29   31 1
  54   29   32 1

#	End of record

