#	Name: ASD01916203
#	Creating user name:	WinNT
#	Creation time:	15. 06. 2019 20:06

#	Modifying user name:	WinNT
#	Modification time:	15. 06. 2019 20:06

#	Program:	/corina/corina34_cracker 3.40 0067  02.08.2006

@<TRIPOS>MOLECULE
ASD01916203
  39   41    0    0    0
SMALL
NO_CHARGES


@<TRIPOS>ATOM
   1 C1            -0.3866     1.7168     0.1126 C.ar    
   2 C2            -0.5134     0.3662     0.3820 C.ar    
   3 N3             0.5333    -0.3598     0.7131 N.ar    
   4 C4             1.7494     0.1665     0.8031 C.ar    
   5 C5             1.9569     1.5182     0.5475 C.ar    
   6 C6             0.8693     2.3127     0.1943 C.ar    
   7 C7            -1.8703    -0.2838     0.2956 C.3     
   8 O8             1.0293     3.6357    -0.0637 O.3     
   9 C9             2.2790     4.1596     0.0411 C.ar    
  10 C10            3.2186     3.9711    -0.9674 C.ar    
  11 N11            4.4243     4.4970    -0.8279 N.ar    
  12 C12            4.7393     5.1909     0.2473 C.ar    
  13 N13            3.8773     5.3915     1.2239 N.ar    
  14 C14            2.6498     4.9031     1.1569 C.ar    
  15 C15            2.8952    -0.6936     1.1797 C.2     
  16 N16            2.7010    -2.0038     1.4291 N.am    
  17 O17            4.0102    -0.2179     1.2637 O.2     
  18 C18            3.7915    -2.8345     1.6799 C.ar    
  19 C19            3.5960    -4.2036     1.8207 C.ar    
  20 C20            4.6873    -5.0176     2.0691 C.ar    
  21 C21            5.9423    -4.4310     2.1684 C.ar    
  22 C22            6.0629    -3.0622     2.0174 C.ar    
  23 N23            5.0044    -2.3129     1.7763 N.ar    
  24 Cl24           7.3444    -5.4062     2.4795 Cl      
  25 C25           -1.8050    -1.4754    -0.6618 C.3     
  26 H26           -1.2515     2.3021    -0.1625 H       
  27 H27            2.9464     1.9447     0.6218 H       
  28 H28           -2.1717    -0.6285     1.2848 H       
  29 H29           -2.5969     0.4398    -0.0740 H       
  30 H30            2.9674     3.4032    -1.8510 H       
  31 H31            5.7325     5.6069     0.3307 H       
  32 H32            1.9470     5.0755     1.9586 H       
  33 H33            1.8022    -2.3685     1.4341 H       
  34 H34            2.6056    -4.6263     1.7377 H       
  35 H35            4.5657    -6.0846     2.1834 H       
  36 H36            7.0365    -2.6011     2.0938 H       
  37 H37           -2.7864    -1.9455    -0.7243 H       
  38 H38           -1.5036    -1.1307    -1.6509 H       
  39 H39           -1.0784    -2.1990    -0.2921 H       
@<TRIPOS>BOND
   1    1    2 ar
   2    1    6 ar
   3    1   26 1
   4    2    3 ar
   5    2    7 1
   6    3    4 ar
   7    4    5 ar
   8    4   15 1
   9    5    6 ar
  10    5   27 1
  11    6    8 1
  12    7   25 1
  13    7   28 1
  14    7   29 1
  15    8    9 1
  16    9   10 ar
  17    9   14 ar
  18   10   11 ar
  19   10   30 1
  20   11   12 ar
  21   12   13 ar
  22   12   31 1
  23   13   14 ar
  24   14   32 1
  25   15   16 am
  26   15   17 2
  27   16   18 1
  28   16   33 1
  29   18   19 ar
  30   18   23 ar
  31   19   20 ar
  32   19   34 1
  33   20   21 ar
  34   20   35 1
  35   21   22 ar
  36   21   24 1
  37   22   23 ar
  38   22   36 1
  39   25   37 1
  40   25   38 1
  41   25   39 1

#	End of record

