#	Name: ASD01900024
#	Creating user name:	WinNT
#	Creation time:	15. 06. 2019 19:51

#	Modifying user name:	WinNT
#	Modification time:	15. 06. 2019 19:51

#	Program:	/corina/corina34_cracker 3.40 0067  02.08.2006

@<TRIPOS>MOLECULE
ASD01900024
  36   37    0    0    0
SMALL
NO_CHARGES


@<TRIPOS>ATOM
   1 C1            -0.0187     1.5258     0.0104 C.3     
   2 C2             0.0021    -0.0041     0.0020 C.3     
   3 C3             0.7182    -0.4975    -1.2568 C.3     
   4 C4             2.1536     0.0321    -1.2676 C.3     
   5 C5             2.1328     1.5619    -1.2592 C.3     
   6 C6             1.4167     2.0553    -0.0004 C.3     
   7 C7             3.5467     2.0836    -1.2699 C.2     
   8 C8             2.8825    -0.4671    -0.0468 C.2     
   9 O9             3.7740     3.4064    -1.2650 O.3     
  10 N10            3.0251    -1.7871     0.1574 N.am    
  11 O11            4.4755     1.3110    -1.2829 O.2     
  12 O12            3.3406     0.3235     0.7521 O.2     
  13 O13            3.7100    -2.2562     1.3045 O.3     
  14 H14            1.6057     1.9230    -2.1423 H       
  15 H15            2.6638    -0.3194    -2.1644 H       
  16 C16            3.7828    -3.6090     1.3894 C.ar    
  17 C17            4.8548    -4.2848     0.8223 C.ar    
  18 C18            4.9264    -5.6613     0.9107 C.ar    
  19 C19            3.9315    -6.3663     1.5628 C.ar    
  20 C20            2.8625    -5.6960     2.1287 C.ar    
  21 C21            2.7883    -4.3191     2.0485 C.ar    
  22 H22           -0.5459     1.8868    -0.8726 H       
  23 H23           -0.5289     1.8773     0.9072 H       
  24 H24            0.5293    -0.3651     0.8851 H       
  25 H25           -1.0205    -0.3814     0.0098 H       
  26 H26            0.7330    -1.5874    -1.2628 H       
  27 H27            0.1910    -0.1364    -2.1398 H       
  28 H28            1.4019     3.1452     0.0056 H       
  29 H29            1.9439     1.6943     0.8826 H       
  30 H30            4.6975     3.6932    -1.2723 H       
  31 H31            2.6590    -2.4189    -0.4811 H       
  32 H32            5.6318    -3.7348     0.3122 H       
  33 H33            5.7601    -6.1876     0.4697 H       
  34 H34            3.9892    -7.4427     1.6301 H       
  35 H35            2.0868    -6.2493     2.6371 H       
  36 H36            1.9534    -3.7961     2.4909 H       
@<TRIPOS>BOND
   1    1    2 1
   2    1    6 1
   3    1   22 1
   4    1   23 1
   5    2    3 1
   6    2   24 1
   7    2   25 1
   8    3    4 1
   9    3   26 1
  10    3   27 1
  11    4    5 1
  12    4    8 1
  13    4   15 1
  14    5    6 1
  15    5    7 1
  16    5   14 1
  17    6   28 1
  18    6   29 1
  19    7    9 1
  20    7   11 2
  21    8   10 am
  22    8   12 2
  23    9   30 1
  24   10   13 1
  25   10   31 1
  26   13   16 1
  27   16   17 ar
  28   16   21 ar
  29   17   18 ar
  30   17   32 1
  31   18   19 ar
  32   18   33 1
  33   19   20 ar
  34   19   34 1
  35   20   21 ar
  36   20   35 1
  37   21   36 1

#	End of record

