#	Name: ASD02038740
#	Creating user name:	WinNT
#	Creation time:	15. 06. 2019 20:17

#	Modifying user name:	WinNT
#	Modification time:	15. 06. 2019 20:17

#	Program:	/corina/corina34_cracker 3.40 0067  02.08.2006

@<TRIPOS>MOLECULE
ASD02038740
  56   60    0    0    0
SMALL
NO_CHARGES


@<TRIPOS>ATOM
   1 C1            -0.0486     1.5648     0.2139 C.3     
   2 C2            -0.0552     0.0566     0.4713 C.3     
   3 C3             1.3719     2.0681     0.2131 C.2     
   4 N4             1.6234     3.3757     0.0047 N.am    
   5 C5             2.9339     3.8607     0.1005 C.ar    
   6 C6             3.9965     3.0744    -0.3200 C.ar    
   7 C7             5.2911     3.5586    -0.2232 C.ar    
   8 C8             5.5247     4.8322     0.2953 C.ar    
   9 C9             4.4583     5.6128     0.7144 C.ar    
  10 C10            3.1685     5.1319     0.6116 C.ar    
  11 O11            2.2888     1.2964     0.3999 O.2     
  12 N12           -1.4398    -0.4339     0.4721 N.3     
  13 C13           -1.4781    -1.9019     0.4788 C.3     
  14 C14           -2.9259    -2.3751     0.6262 C.3     
  15 C15           -6.1380    -2.6676    -2.6531 C.ar    
  16 C16           -6.0119    -1.8174    -1.5702 C.ar    
  17 C17           -5.2183    -2.2488    -0.3639 C.3     
  18 C18           -3.7572    -1.8296    -0.5382 C.3     
  19 N19            6.5379     3.0272    -0.5522 N.am    
  20 C20            7.4676     3.9515    -0.2396 C.2     
  21 O21            6.8653     5.0373     0.2696 O.3     
  22 O22            8.6667     3.8216    -0.3946 O.2     
  23 C23           -3.6613    -0.3015    -0.5516 C.3     
  24 C24           -2.1921     0.1117    -0.6649 C.3     
  25 C25           -6.8650    -2.2765    -3.7618 C.ar    
  26 C26           -7.4696    -1.0302    -3.7902 C.ar    
  27 C27           -7.3422    -0.1736    -2.6996 C.ar    
  28 C28           -6.6120    -0.5723    -1.5917 C.ar    
  29 O29           -8.2276    -0.4134    -4.7432 O.3     
  30 C30           -8.9023     0.6608    -4.0620 C.3     
  31 O31           -8.0205     0.9799    -2.9692 O.3     
  32 H32           -0.5075     1.7704    -0.7532 H       
  33 H33           -0.6125     2.0697     0.9983 H       
  34 H34            0.5087    -0.4483    -0.3131 H       
  35 H35            0.4037    -0.1489     1.4384 H       
  36 H36            0.8969     3.9809    -0.2117 H       
  37 H37            3.8154     2.0882    -0.7210 H       
  38 H38            4.6364     6.5992     1.1166 H       
  39 H39            2.3393     5.7418     0.9384 H       
  40 H40           -1.0658    -2.2802    -0.4566 H       
  41 H41           -0.8866    -2.2768     1.3141 H       
  42 H42           -2.9555    -3.4647     0.6155 H       
  43 H43           -3.3344    -2.0087     1.5680 H       
  44 H44           -5.6636    -3.6377    -2.6345 H       
  45 H45           -5.6279    -1.7759     0.5286 H       
  46 H46           -5.2755    -3.3323    -0.2598 H       
  47 H47           -3.3736    -2.2278    -1.4776 H       
  48 H48            6.7054     2.1522    -0.9358 H       
  49 H49           -4.2163     0.0905    -1.4038 H       
  50 H50           -4.0814     0.0976     0.3717 H       
  51 H51           -2.1193     1.1992    -0.6602 H       
  52 H52           -1.7765    -0.2760    -1.5949 H       
  53 H53           -6.9615    -2.9426    -4.6065 H       
  54 H54           -6.5119     0.0899    -0.7444 H       
  55 H55           -9.0194     1.5197    -4.7228 H       
  56 H56           -9.8710     0.3289    -3.6884 H       
@<TRIPOS>BOND
   1    1    2 1
   2    1    3 1
   3    1   32 1
   4    1   33 1
   5    2   12 1
   6    2   34 1
   7    2   35 1
   8    3    4 am
   9    3   11 2
  10    4    5 1
  11    4   36 1
  12    5    6 ar
  13    5   10 ar
  14    6    7 ar
  15    6   37 1
  16    7    8 ar
  17    7   19 1
  18    8    9 ar
  19    8   21 1
  20    9   10 ar
  21    9   38 1
  22   10   39 1
  23   12   13 1
  24   12   24 1
  25   13   14 1
  26   13   40 1
  27   13   41 1
  28   14   18 1
  29   14   42 1
  30   14   43 1
  31   15   16 ar
  32   15   25 ar
  33   15   44 1
  34   16   17 1
  35   16   28 ar
  36   17   18 1
  37   17   45 1
  38   17   46 1
  39   18   23 1
  40   18   47 1
  41   19   20 am
  42   19   48 1
  43   20   21 1
  44   20   22 2
  45   23   24 1
  46   23   49 1
  47   23   50 1
  48   24   51 1
  49   24   52 1
  50   25   26 ar
  51   25   53 1
  52   26   27 ar
  53   26   29 1
  54   27   28 ar
  55   27   31 1
  56   28   54 1
  57   29   30 1
  58   30   31 1
  59   30   55 1
  60   30   56 1

#	End of record

