#	Name: ASD01120269
#	Creating user name:	WinNT
#	Creation time:	15. 06. 2019 18:59

#	Modifying user name:	WinNT
#	Modification time:	15. 06. 2019 18:59

#	Program:	/corina/corina34_cracker 3.40 0067  02.08.2006

@<TRIPOS>MOLECULE
ASD01120269
  37   39    0    0    0
SMALL
NO_CHARGES


@<TRIPOS>ATOM
   1 C1            -0.0187     1.5258     0.0104 C.3     
   2 C2             0.0021    -0.0041     0.0020 C.3     
   3 O3            -1.3386    -0.4987     0.0122 O.3     
   4 C4            -1.4972    -1.8384     0.0065 C.2     
   5 O5            -0.5227    -2.5661    -0.0067 O.2     
   6 C6            -2.8434    -2.4168     0.0162 C.2     
   7 N7            -4.0230    -1.7012     0.0309 N.pl3   
   8 C8            -5.0968    -2.5597     0.0358 C.ar    
   9 C9            -4.6008    -3.8763     0.0241 C.ar    
  10 C10           -3.1372    -3.7690     0.0062 C.2     
  11 C11           -2.1673    -4.8860    -0.0113 C.ar    
  12 C12           -1.3365    -5.0754    -1.1166 C.ar    
  13 C13           -0.4339    -6.1187    -1.1265 C.ar    
  14 C14           -0.3513    -6.9763    -0.0438 C.ar    
  15 C15           -1.1724    -6.7942     1.0548 C.ar    
  16 C16           -2.0752    -5.7514     1.0797 C.ar    
  17 C17           -5.4875    -4.9562     0.0261 C.ar    
  18 C18           -6.8340    -4.7289     0.0396 C.ar    
  19 C19           -7.3298    -3.4314     0.0508 C.ar    
  20 C20           -6.4749    -2.3526     0.0494 C.ar    
  21 N21           -7.0181    -0.9756     0.0619 N.pl3   
  22 O22           -8.2227    -0.7962     0.0734 O.2     
  23 O23           -6.2604    -0.0220     0.0608 O.2     
  24 H24            1.0039     1.9031     0.0027 H       
  25 H25           -0.5459     1.8868    -0.8726 H       
  26 H26           -0.5289     1.8773     0.9072 H       
  27 H27            0.5123    -0.3556    -0.8948 H       
  28 H28            0.5293    -0.3651     0.8851 H       
  29 H29           -4.0856    -0.7332     0.0371 H       
  30 H30           -1.4003    -4.4070    -1.9625 H       
  31 H31            0.2094    -6.2666    -1.9814 H       
  32 H32            0.3570    -7.7915    -0.0565 H       
  33 H33           -1.1032    -7.4673     1.8966 H       
  34 H34           -2.7156    -5.6103     1.9379 H       
  35 H35           -5.1091    -5.9677     0.0168 H       
  36 H36           -7.5185    -5.5642     0.0412 H       
  37 H37           -8.3972    -3.2674     0.0606 H       
@<TRIPOS>BOND
   1    1    2 1
   2    1   24 1
   3    1   25 1
   4    1   26 1
   5    2    3 1
   6    2   27 1
   7    2   28 1
   8    3    4 1
   9    4    5 2
  10    4    6 1
  11    6    7 1
  12    6   10 2
  13    7    8 1
  14    7   29 1
  15    8    9 ar
  16    8   20 ar
  17    9   10 1
  18    9   17 ar
  19   10   11 1
  20   11   12 ar
  21   11   16 ar
  22   12   13 ar
  23   12   30 1
  24   13   14 ar
  25   13   31 1
  26   14   15 ar
  27   14   32 1
  28   15   16 ar
  29   15   33 1
  30   16   34 1
  31   17   18 ar
  32   17   35 1
  33   18   19 ar
  34   18   36 1
  35   19   20 ar
  36   19   37 1
  37   20   21 1
  38   21   22 2
  39   21   23 2

#	End of record

