#	Name: ASD08178013
#	Creating user name:	WinNT
#	Creation time:	15. 06. 2019 21:18

#	Modifying user name:	WinNT
#	Modification time:	15. 06. 2019 21:18

#	Program:	/corina/corina34_cracker 3.40 0067  02.08.2006

@<TRIPOS>MOLECULE
ASD08178013
  64   67    0    0    0
SMALL
NO_CHARGES


@<TRIPOS>ATOM
   1 C1            -0.0184     1.5028     0.0103 C.2     
   2 C2             0.0021    -0.0041     0.0020 C.3     
   3 C3            -0.0048    -0.5063    -1.4432 C.3     
   4 C4             0.0160    -2.0361    -1.4516 C.3     
   5 C5            -0.1165    -2.5400    -2.8901 C.3     
   6 C6            -0.2212    -4.0665    -2.8882 C.3     
   7 C7            -0.3517    -4.5628    -4.3051 C.2     
   8 S8            -1.8596    -4.8082    -5.1868 S.3     
   9 C9            -0.9572    -5.3295    -6.5465 C.2     
  10 N10            0.3066    -5.2808    -6.2508 N.2     
  11 N11            0.6235    -4.8805    -5.0962 N.2     
  12 N12           -1.4897    -5.7377    -7.7647 N.am    
  13 C13           -0.6705    -6.1269    -8.7616 C.2     
  14 O14            0.5311    -6.1212    -8.5964 O.2     
  15 C15           -1.2474    -6.5692   -10.0817 C.3     
  16 C16           -0.1284    -6.9496   -11.0167 C.ar    
  17 C17            0.3352    -8.2516   -11.0462 C.ar    
  18 C18            0.4305    -5.9979   -11.8490 C.ar    
  19 C19            1.4569    -6.3469   -12.7067 C.ar    
  20 C20            1.9247    -7.6474   -12.7318 C.ar    
  21 C21            1.3616    -8.6005   -11.9038 C.ar    
  22 C22            1.3359    -2.5315    -0.8572 C.3     
  23 S23            1.3918     2.5625     0.0025 S.3     
  24 N24           -1.0746     2.2524     0.0187 N.2     
  25 N25           -0.8817     3.5001     0.0243 N.2     
  26 C26            0.3474     3.9203     0.0191 C.2     
  27 N27            0.7489     5.2518     0.0242 N.am    
  28 C28           -0.1741     6.2339     0.0349 C.2     
  29 O29           -1.3547     5.9565     0.0402 O.2     
  30 C30            0.2610     7.6767     0.0404 C.3     
  31 C31           -0.9543     8.5678     0.0523 C.ar    
  32 C32           -1.5048     8.9699     1.2549 C.ar    
  33 C33           -1.5151     8.9877    -1.1393 C.ar    
  34 C34           -2.6299     9.8051    -1.1284 C.ar    
  35 C35           -3.1840    10.2022     0.0741 C.ar    
  36 C36           -2.6196     9.7872     1.2658 C.ar    
  37 H37            0.9018    -0.3580     0.5054 H       
  38 H38           -0.8780    -0.3822     0.5223 H       
  39 H39           -0.9045    -0.1523    -1.9466 H       
  40 H40            0.8752    -0.1281    -1.9634 H       
  41 H41           -0.8152    -2.4140    -0.8562 H       
  42 H42           -1.0123    -2.1150    -3.3430 H       
  43 H43            0.7594    -2.2366    -3.4636 H       
  44 H44            0.6746    -4.4915    -2.4354 H       
  45 H45           -1.0971    -4.3699    -2.3148 H       
  46 H46           -2.4506    -5.7423    -7.8969 H       
  47 H47           -1.8975    -7.4297    -9.9240 H       
  48 H48           -1.8238    -5.7534   -10.5179 H       
  49 H49           -0.1043    -8.9960   -10.3988 H       
  50 H50            0.0650    -4.9818   -11.8295 H       
  51 H51            1.8931    -5.6035   -13.3575 H       
  52 H52            2.7263    -7.9202   -13.4022 H       
  53 H53            1.7270    -9.6166   -11.9234 H       
  54 H54            2.1670    -2.1536    -1.4526 H       
  55 H55            1.4303    -2.1725     0.1676 H       
  56 H56            1.3507    -3.6214    -0.8632 H       
  57 H57            1.6932     5.4737     0.0200 H       
  58 H58            0.8629     7.8713     0.9281 H       
  59 H59            0.8527     7.8812    -0.8518 H       
  60 H60           -1.0642     8.6451     2.1859 H       
  61 H61           -1.0822     8.6775    -2.0788 H       
  62 H62           -3.0676    10.1337    -2.0594 H       
  63 H63           -4.0548    10.8411     0.0826 H       
  64 H64           -3.0525    10.0975     2.2053 H       
@<TRIPOS>BOND
   1    1    2 1
   2    1   23 1
   3    1   24 2
   4    2    3 1
   5    2   37 1
   6    2   38 1
   7    3    4 1
   8    3   39 1
   9    3   40 1
  10    4    5 1
  11    4   22 1
  12    4   41 1
  13    5    6 1
  14    5   42 1
  15    5   43 1
  16    6    7 1
  17    6   44 1
  18    6   45 1
  19    7    8 1
  20    7   11 2
  21    8    9 1
  22    9   10 2
  23    9   12 1
  24   10   11 1
  25   12   13 am
  26   12   46 1
  27   13   14 2
  28   13   15 1
  29   15   16 1
  30   15   47 1
  31   15   48 1
  32   16   17 ar
  33   16   18 ar
  34   17   21 ar
  35   17   49 1
  36   18   19 ar
  37   18   50 1
  38   19   20 ar
  39   19   51 1
  40   20   21 ar
  41   20   52 1
  42   21   53 1
  43   22   54 1
  44   22   55 1
  45   22   56 1
  46   23   26 1
  47   24   25 1
  48   25   26 2
  49   26   27 1
  50   27   28 am
  51   27   57 1
  52   28   29 2
  53   28   30 1
  54   30   31 1
  55   30   58 1
  56   30   59 1
  57   31   32 ar
  58   31   33 ar
  59   32   36 ar
  60   32   60 1
  61   33   34 ar
  62   33   61 1
  63   34   35 ar
  64   34   62 1
  65   35   36 ar
  66   35   63 1
  67   36   64 1

#	End of record

