#	Name: ASD00311029
#	Creating user name:	WinNT
#	Creation time:	15. 06. 2019 18:34

#	Modifying user name:	WinNT
#	Modification time:	15. 06. 2019 18:34

#	Program:	/corina/corina34_cracker 3.40 0067  02.08.2006

@<TRIPOS>MOLECULE
ASD00311029
  35   37    0    0    0
SMALL
NO_CHARGES


@<TRIPOS>ATOM
   1 C1            -0.0168     1.3885     0.0097 C.ar    
   2 C2             0.0021    -0.0041     0.0020 C.ar    
   3 C3             1.2158    -0.6870    -0.0133 C.ar    
   4 C4             2.3962     0.0100    -0.0209 C.ar    
   5 C5             2.3808     1.4087    -0.0132 C.ar    
   6 C6             1.1601     2.0916     0.0022 C.ar    
   7 C7             3.6312     3.6283    -0.0128 C.2     
   8 C8             3.6492     2.1621    -0.0208 C.2     
   9 C9             5.9906     6.4929    -0.0191 C.ar    
  10 C10            4.7721     5.7898    -0.0117 C.ar    
  11 C11            4.7902     4.3167    -0.0198 C.2     
  12 C12            5.9862     7.8560    -0.0118 C.ar    
  13 C13            4.7436     8.5201     0.0032 C.ar    
  14 C14            3.5490     7.7538     0.0106 C.ar    
  15 N15            3.6114     6.4220     0.0028 N.ar    
  16 O16            4.7108     1.5665    -0.0338 O.2     
  17 C17            2.3093     8.4203     0.0256 C.ar    
  18 C18            2.2743     9.7805     0.0328 C.ar    
  19 C19            3.4491    10.5301     0.0255 C.ar    
  20 C20            4.6675     9.9212     0.0119 C.ar    
  21 N21           -1.1930    -0.7139     0.0101 N.pl3   
  22 H22           -0.9597     1.9151     0.0170 H       
  23 H23            1.2270    -1.7669    -0.0188 H       
  24 H24            3.3371    -0.5202    -0.0324 H       
  25 H25            1.1448     3.1715     0.0078 H       
  26 H26            2.6894     4.1567    -0.0013 H       
  27 H27            6.9266     5.9543    -0.0261 H       
  28 H28            5.7321     3.7883    -0.0313 H       
  29 H29            6.9117     8.4127    -0.0170 H       
  30 H30            1.3895     7.8543     0.0311 H       
  31 H31            1.3207    10.2873     0.0440 H       
  32 H32            3.3927    11.6086     0.0315 H       
  33 H33            5.5703    10.5138     0.0067 H       
  34 H34           -2.0389    -0.2393     0.0211 H       
  35 H35           -1.1811    -1.6838     0.0048 H       
@<TRIPOS>BOND
   1    1    2 ar
   2    1    6 ar
   3    1   22 1
   4    2    3 ar
   5    2   21 1
   6    3    4 ar
   7    3   23 1
   8    4    5 ar
   9    4   24 1
  10    5    6 ar
  11    5    8 1
  12    6   25 1
  13    7    8 1
  14    7   11 2
  15    7   26 1
  16    8   16 2
  17    9   10 ar
  18    9   12 ar
  19    9   27 1
  20   10   11 1
  21   10   15 ar
  22   11   28 1
  23   12   13 ar
  24   12   29 1
  25   13   14 ar
  26   13   20 ar
  27   14   15 ar
  28   14   17 ar
  29   17   18 ar
  30   17   30 1
  31   18   19 ar
  32   18   31 1
  33   19   20 ar
  34   19   32 1
  35   20   33 1
  36   21   34 1
  37   21   35 1

#	End of record

