#	Name: ASD03430193
#	Creating user name:	WinNT
#	Creation time:	15. 06. 2019 20:40

#	Modifying user name:	WinNT
#	Modification time:	15. 06. 2019 20:40

#	Program:	/corina/corina34_cracker 3.40 0067  02.08.2006

@<TRIPOS>MOLECULE
ASD03430193
  68   75    0    0    0
SMALL
NO_CHARGES


@<TRIPOS>ATOM
   1 C1             0.0206     1.3862     0.0288 C.ar    
   2 C2            -1.1775     2.0665     0.0489 C.ar    
   3 C3            -2.3674     1.3708     0.0711 C.ar    
   4 C4            -2.3686    -0.0222     0.0837 C.ar    
   5 C5            -1.1565    -0.7005     0.0552 C.ar    
   6 C6             0.0457    -0.0029     0.0244 C.ar    
   7 O7            -3.6398    -0.5124     0.1372 O.3     
   8 C8            -3.8088     1.8023     0.0725 C.3     
   9 C9            -4.5625     0.5121    -0.2795 C.3     
  10 C10           -4.7025     3.6449     1.1341 C.ar    
  11 C11           -4.2395     2.3578     1.3974 C.ar    
  12 C12           -4.0775     2.8940    -0.9232 C.2     
  13 N13           -4.5948     3.9274    -0.2296 N.am    
  14 O14           -3.8697     2.8536    -2.1174 O.2     
  15 C15           -4.2500     1.8586     2.6803 C.ar    
  16 C16           -4.7228     2.6361     3.7230 C.ar    
  17 C17           -5.1845     3.9153     3.4733 C.ar    
  18 C18           -5.1763     4.4200     2.1892 C.ar    
  19 C19           -4.9982     5.1987    -0.8357 C.3     
  20 C20            1.4613     1.8582     0.0144 C.3     
  21 C21            2.2238     0.5688     0.4009 C.3     
  22 O22            1.3242    -0.4709    -0.0192 O.3     
  23 C23           -3.8291     6.1496    -0.8335 C.ar    
  24 C24           -2.9610     6.1761    -1.9106 C.ar    
  25 C25           -1.8891     7.0445    -1.9152 C.ar    
  26 C26           -1.6813     7.8976    -0.8300 C.ar    
  27 C27           -2.5609     7.8657     0.2534 C.ar    
  28 C28           -3.6319     6.9962     0.2429 C.ar    
  29 C29           -0.5345     8.8303    -0.8279 C.2     
  30 N30           -0.3367     9.6526     0.2214 N.am    
  31 O31            0.2301     8.8556    -1.7726 O.2     
  32 C32            0.8079    10.4544     0.2753 C.ar    
  33 C33            0.7445    11.7214     0.8386 C.ar    
  34 C34            1.8760    12.5154     0.8923 C.ar    
  35 C35            3.0735    12.0455     0.3836 C.ar    
  36 C36            3.1378    10.7811    -0.1786 C.ar    
  37 C37            2.0128     9.9833    -0.2293 C.ar    
  38 C38            2.0681    13.9112     1.4459 C.3     
  39 C39            3.5935    14.0711     1.6182 C.3     
  40 C40            4.1508    13.0943     0.5611 C.3     
  41 H41           -1.1844     3.1465     0.0477 H       
  42 H42           -1.1480    -1.7805     0.0574 H       
  43 H43           -4.7482     0.4528    -1.3520 H       
  44 H44           -5.4953     0.4439     0.2802 H       
  45 H45           -3.8891     0.8591     2.8732 H       
  46 H46           -4.7314     2.2445     4.7294 H       
  47 H47           -5.5535     4.5219     4.2870 H       
  48 H48           -5.5384     5.4201     2.0019 H       
  49 H49           -5.3235     5.0251    -1.8614 H       
  50 H50           -5.8187     5.6303    -0.2624 H       
  51 H51            1.7500     2.1981    -0.9802 H       
  52 H52            1.6218     2.6423     0.7543 H       
  53 H53            3.1689     0.5028    -0.1382 H       
  54 H54            2.3883     0.5255     1.4775 H       
  55 H55           -3.1227     5.5153    -2.7494 H       
  56 H56           -1.2120     7.0640    -2.7564 H       
  57 H57           -2.4055     8.5228     1.0962 H       
  58 H58           -4.3134     6.9707     1.0803 H       
  59 H59           -0.9882     9.6884     0.9391 H       
  60 H60           -0.1905    12.0883     1.2355 H       
  61 H61            4.0737    10.4164    -0.5755 H       
  62 H62            2.0674     8.9980    -0.6682 H       
  63 H63            1.6871    14.6524     0.7434 H       
  64 H64            1.5665    14.0085     2.4087 H       
  65 H65            3.9027    15.0937     1.4019 H       
  66 H66            3.9033    13.7753     2.6205 H       
  67 H67            5.0714    12.6339     0.9197 H       
  68 H68            4.3292    13.6160    -0.3791 H       
@<TRIPOS>BOND
   1    1    6 ar
   2    1   20 1
   3    1    2 ar
   4    2    3 ar
   5    2   41 1
   6    3    4 ar
   7    3    8 1
   8    4    5 ar
   9    4    7 1
  10    5    6 ar
  11    5   42 1
  12    6   22 1
  13    7    9 1
  14    8    9 1
  15    8   11 1
  16    8   12 1
  17    9   43 1
  18    9   44 1
  19   10   11 ar
  20   10   13 1
  21   10   18 ar
  22   11   15 ar
  23   12   13 am
  24   12   14 2
  25   13   19 1
  26   15   16 ar
  27   15   45 1
  28   16   17 ar
  29   16   46 1
  30   17   18 ar
  31   17   47 1
  32   18   48 1
  33   19   23 1
  34   19   49 1
  35   19   50 1
  36   20   21 1
  37   20   51 1
  38   20   52 1
  39   21   22 1
  40   21   53 1
  41   21   54 1
  42   23   24 ar
  43   23   28 ar
  44   24   25 ar
  45   24   55 1
  46   25   26 ar
  47   25   56 1
  48   26   27 ar
  49   26   29 1
  50   27   28 ar
  51   27   57 1
  52   28   58 1
  53   29   30 am
  54   29   31 2
  55   30   32 1
  56   30   59 1
  57   32   33 ar
  58   32   37 ar
  59   33   34 ar
  60   33   60 1
  61   34   35 ar
  62   34   38 1
  63   35   36 ar
  64   35   40 1
  65   36   37 ar
  66   36   61 1
  67   37   62 1
  68   38   39 1
  69   38   63 1
  70   38   64 1
  71   39   40 1
  72   39   65 1
  73   39   66 1
  74   40   67 1
  75   40   68 1

#	End of record

