#	Name: ASD01913970
#	Creating user name:	WinNT
#	Creation time:	15. 06. 2019 20:02

#	Modifying user name:	WinNT
#	Modification time:	15. 06. 2019 20:02

#	Program:	/corina/corina34_cracker 3.40 0067  02.08.2006

@<TRIPOS>MOLECULE
ASD01913970
  44   47    0    0    0
SMALL
NO_CHARGES


@<TRIPOS>ATOM
   1 C1            -0.0984     1.3838     0.0615 C.2     
   2 C2            -0.0886     0.0311     0.0257 C.2     
   3 N3             1.2225     1.7750     0.0241 N.pl3   
   4 N4             1.9873     0.7515    -0.0599 N.2     
   5 C5             1.2710    -0.3532    -0.0677 C.2     
   6 C6             1.7883    -1.7337    -0.1575 C.2     
   7 C7             1.6856     3.1640     0.0730 C.3     
   8 N8             3.1156    -1.9518    -0.2428 N.am    
   9 C9             3.6104    -3.2540    -0.2210 C.ar    
  10 N10            2.7829    -4.2666    -0.0167 N.ar    
  11 C11            3.2101    -5.5145     0.0116 C.ar    
  12 C12            4.5463    -5.8098    -0.1721 C.ar    
  13 C13            5.4474    -4.7760    -0.3894 C.ar    
  14 C14            4.9684    -3.4784    -0.4196 C.ar    
  15 O15            1.0169    -2.6733    -0.1545 O.2     
  16 C16            2.2271    -6.6321     0.2478 C.3     
  17 C17           -1.2444    -0.9121     0.0785 C.3     
  18 C18           -2.4737    -0.3393    -0.5768 C.3     
  19 C19           -3.1522     0.7139     0.2380 C.3     
  20 C20           -2.5473     2.0768     0.1810 C.ar    
  21 C21           -1.2015     2.3665     0.1021 C.ar    
  22 C22           -3.4581     3.1385     0.2129 C.ar    
  23 C23           -2.9971     4.4398     0.1644 C.ar    
  24 C24           -1.6339     4.6607     0.0844 C.ar    
  25 N25           -0.8015     3.6500     0.0561 N.ar    
  26 H26            1.7246     3.4976     1.1100 H       
  27 H27            2.6802     3.2311    -0.3679 H       
  28 H28            0.9966     3.7966    -0.4865 H       
  29 H29            3.7263    -1.2021    -0.3194 H       
  30 H30            4.8872    -6.8343    -0.1467 H       
  31 H31            6.4977    -4.9805    -0.5355 H       
  32 H32            5.6413    -2.6503    -0.5863 H       
  33 H33            1.8336    -6.9780    -0.7080 H       
  34 H34            2.7292    -7.4567     0.7539 H       
  35 H35            1.4075    -6.2699     0.8685 H       
  36 H36           -0.9704    -1.8366    -0.4297 H       
  37 H37           -1.4708    -1.1366     1.1208 H       
  38 H38           -2.1882     0.0923    -1.5361 H       
  39 H39           -3.1808    -1.1486    -0.7587 H       
  40 H40           -4.1874     0.7872    -0.0955 H       
  41 H41           -3.1581     0.3878     1.2780 H       
  42 H42           -4.5181     2.9412     0.2750 H       
  43 H43           -3.6883     5.2694     0.1881 H       
  44 H44           -1.2544     5.6710     0.0446 H       
@<TRIPOS>BOND
   1    1    2 2
   2    1    3 1
   3    1   21 1
   4    2   17 1
   5    2    5 1
   6    3    4 1
   7    3    7 1
   8    4    5 2
   9    5    6 1
  10    6    8 am
  11    6   15 2
  12    7   26 1
  13    7   27 1
  14    7   28 1
  15    8    9 1
  16    8   29 1
  17    9   10 ar
  18    9   14 ar
  19   10   11 ar
  20   11   12 ar
  21   11   16 1
  22   12   13 ar
  23   12   30 1
  24   13   14 ar
  25   13   31 1
  26   14   32 1
  27   16   33 1
  28   16   34 1
  29   16   35 1
  30   17   18 1
  31   17   36 1
  32   17   37 1
  33   18   19 1
  34   18   38 1
  35   18   39 1
  36   19   20 1
  37   19   40 1
  38   19   41 1
  39   20   21 ar
  40   20   22 ar
  41   21   25 ar
  42   22   23 ar
  43   22   42 1
  44   23   24 ar
  45   23   43 1
  46   24   25 ar
  47   24   44 1

#	End of record

