#	Name: ASD01208886
#	Creating user name:	WinNT
#	Creation time:	15. 06. 2019 19:10

#	Modifying user name:	WinNT
#	Modification time:	15. 06. 2019 19:10

#	Program:	/corina/corina34_cracker 3.40 0067  02.08.2006

@<TRIPOS>MOLECULE
ASD01208886
  64   67    0    0    0
SMALL
NO_CHARGES


@<TRIPOS>ATOM
   1 C1            -0.6249     1.5513    -0.5831 C.2     
   2 C2            -0.3238     0.1104    -0.4488 C.ar    
   3 C3            -1.3551    -0.8017    -0.2214 C.ar    
   4 C4            -1.0685    -2.1511    -0.0961 C.ar    
   5 C5             0.2422    -2.5962    -0.1960 C.ar    
   6 C6             1.2703    -1.6928    -0.4220 C.ar    
   7 C7             0.9917    -0.3423    -0.5547 C.ar    
   8 O8             0.2749     2.3444    -0.7812 O.2     
   9 N9            -1.8976     1.9852    -0.4915 N.am    
  10 S10           -3.7433     4.0261    -0.5231 S.3     
  11 C11           -2.1805     3.3392    -0.6177 C.2     
  12 N12           -1.2979     4.2662    -0.8239 N.2     
  13 C13           -1.7435     5.5050    -0.9181 C.2     
  14 C14           -3.0653     5.6309    -0.7852 C.2     
  15 O15            2.5521    -2.1339    -0.5186 O.3     
  16 C16            4.8908    -1.6984    -0.0928 C.3     
  17 C17            3.5730    -1.1408    -0.6344 C.3     
  18 C18            3.7475    -0.7579    -2.1054 C.3     
  19 O19            5.3235    -2.7830    -0.9164 O.3     
  20 C20            6.5523    -3.3785    -0.4952 C.3     
  21 O21           -2.0720    -3.0402     0.1254 O.3     
  22 C22           -2.8446    -3.4056    -0.9301 C.ar    
  23 C23           -2.5288    -2.9594    -2.2072 C.ar    
  24 C24           -3.3103    -3.3281    -3.2808 C.ar    
  25 C25           -4.4206    -4.1515    -3.0836 C.ar    
  26 C26           -4.7345    -4.5983    -1.7985 C.ar    
  27 C27           -3.9453    -4.2293    -0.7307 C.ar    
  28 O28           -6.3561    -5.3344    -4.1877 O.3     
  29 C29           -5.2615    -4.5487    -4.2319 C.2     
  30 N30           -5.0821    -4.2020    -5.4853 N.2     
  31 N31           -6.0053    -4.7316    -6.2082 N.2     
  32 C32           -6.8037    -5.4313    -5.4519 C.2     
  33 C33           -8.0107    -6.2081    -5.9112 C.3     
  34 C34           -7.5923    -7.6353    -6.2702 C.3     
  35 C35           -7.1026    -8.3550    -5.0119 C.3     
  36 C36           -8.7906    -8.3866    -6.8537 C.3     
  37 H37           -2.3753    -0.4560    -0.1428 H       
  38 H38            0.4624    -3.6488    -0.0972 H       
  39 H39            1.7923     0.3597    -0.7355 H       
  40 H40           -2.6160     1.3520    -0.3374 H       
  41 H41           -1.0911     6.3486    -1.0889 H       
  42 H42           -3.6223     6.5551    -0.8305 H       
  43 H43            5.6472    -0.9135    -0.0987 H       
  44 H44            4.7433    -2.0531     0.9273 H       
  45 H45            3.2886    -0.2587    -0.0607 H       
  46 H46            4.0320    -1.6399    -2.6792 H       
  47 H47            2.8087    -0.3606    -2.4913 H       
  48 H48            4.5262    -0.0003    -2.1937 H       
  49 H49            7.3431    -2.6285    -0.5095 H       
  50 H50            6.4392    -3.7681     0.5165 H       
  51 H51            6.8118    -4.1931    -1.1714 H       
  52 H52           -1.6699    -2.3226    -2.3589 H       
  53 H53           -3.0646    -2.9802    -4.2732 H       
  54 H54           -5.5927    -5.2350    -1.6420 H       
  55 H55           -4.1853    -4.5775     0.2631 H       
  56 H56           -8.7504    -6.2367    -5.1112 H       
  57 H57           -8.4419    -5.7246    -6.7878 H       
  58 H58           -6.7893    -7.6042    -7.0067 H       
  59 H59           -6.2489    -7.8197    -4.5963 H       
  60 H60           -7.9056    -8.3861    -4.2755 H       
  61 H61           -6.8045    -9.3718    -5.2677 H       
  62 H62           -9.1394    -7.8739    -7.7501 H       
  63 H63           -8.4925    -9.4034    -7.1094 H       
  64 H64           -9.5936    -8.4177    -6.1172 H       
@<TRIPOS>BOND
   1    1    2 1
   2    1    8 2
   3    1    9 am
   4    2    3 ar
   5    2    7 ar
   6    3    4 ar
   7    3   37 1
   8    4    5 ar
   9    4   21 1
  10    5    6 ar
  11    5   38 1
  12    6    7 ar
  13    6   15 1
  14    7   39 1
  15    9   11 1
  16    9   40 1
  17   10   11 1
  18   10   14 1
  19   11   12 2
  20   12   13 1
  21   13   14 2
  22   13   41 1
  23   14   42 1
  24   15   17 1
  25   16   17 1
  26   16   19 1
  27   16   43 1
  28   16   44 1
  29   17   18 1
  30   17   45 1
  31   18   46 1
  32   18   47 1
  33   18   48 1
  34   19   20 1
  35   20   49 1
  36   20   50 1
  37   20   51 1
  38   21   22 1
  39   22   23 ar
  40   22   27 ar
  41   23   24 ar
  42   23   52 1
  43   24   25 ar
  44   24   53 1
  45   25   26 ar
  46   25   29 1
  47   26   27 ar
  48   26   54 1
  49   27   55 1
  50   28   29 1
  51   28   32 1
  52   29   30 2
  53   30   31 1
  54   31   32 2
  55   32   33 1
  56   33   34 1
  57   33   56 1
  58   33   57 1
  59   34   35 1
  60   34   36 1
  61   34   58 1
  62   35   59 1
  63   35   60 1
  64   35   61 1
  65   36   62 1
  66   36   63 1
  67   36   64 1

#	End of record

