#	Name: ASD01140214
#	Creating user name:	WinNT
#	Creation time:	15. 06. 2019 19:00

#	Modifying user name:	WinNT
#	Modification time:	15. 06. 2019 19:00

#	Program:	/corina/corina34_cracker 3.40 0067  02.08.2006

@<TRIPOS>MOLECULE
ASD01140214
  83   90    0    0    0
SMALL
NO_CHARGES


@<TRIPOS>ATOM
   1 C1             0.1847     1.6871     0.3912 C.ar    
   2 C2             0.0665     0.2949     0.3825 C.ar    
   3 C3             1.1983    -0.4965     0.2315 C.ar    
   4 C4             2.4616     0.0916     0.0873 C.ar    
   5 C5             2.5609     1.4852     0.0744 C.ar    
   6 C6             1.4225     2.2698     0.2380 C.ar    
   7 C7             3.6239    -0.7986    -0.0118 C.2     
   8 N8             4.6451    -0.6796    -0.7851 N.2     
   9 C9             4.7636     0.4253    -1.7435 C.3     
  10 C10            4.7688     1.7127    -0.9605 C.2     
  11 N11            3.7808     2.1348    -0.1334 N.pl3   
  12 C12           -1.2204    -0.3158     0.5296 C.1     
  13 C13            4.1848     3.3097     0.4221 C.2     
  14 C14            3.6212    -1.9760     0.8873 C.ar    
  15 C15            5.7450     2.6608    -0.9367 C.2     
  16 N16            5.3499     3.6277    -0.0666 N.2     
  17 C17            6.9974     2.6426    -1.7093 C.2     
  18 O18            7.8795     3.6544    -1.5870 O.3     
  19 O19            7.2363     1.7151    -2.4576 O.2     
  20 O20           12.0710     5.8751    -2.6884 O.3     
  21 C21           13.2426     5.9515    -3.3504 C.2     
  22 C22           14.1324     7.1047    -3.1408 C.2     
  23 O23           13.5642     5.0678    -4.1205 O.2     
  24 N24           13.9030     8.1603    -2.3142 N.2     
  25 C25           15.3402     7.3100    -3.7335 C.2     
  26 N26           15.8119     8.4978    -3.2829 N.pl3   
  27 C27           14.9057     8.9884    -2.3935 C.2     
  28 C28           16.0549     6.3939    -4.6938 C.3     
  29 N29           17.3385     6.0240    -4.0877 N.2     
  30 C30           18.2300     6.9064    -3.7950 C.2     
  31 C31           18.1514     8.3613    -3.9729 C.ar    
  32 C32           17.0034     9.1039    -3.6871 C.ar    
  33 C33           19.2897     9.0258    -4.4465 C.ar    
  34 C34           19.2851    10.4065    -4.6012 C.ar    
  35 C35           18.1401    11.1399    -4.2791 C.ar    
  36 C36           17.0156    10.4897    -3.8268 C.ar    
  37 C37           20.4522    11.0772    -5.0896 C.1     
  38 C38           19.4877     6.3901    -3.2066 C.ar    
  39 C39            9.0934     3.5700    -2.3792 C.3     
  40 C40           11.2440     4.7094    -2.9443 C.3     
  41 C41           20.2750     7.2145    -2.4030 C.ar    
  42 C42           21.4451     6.7277    -1.8574 C.ar    
  43 C43           21.8380     5.4247    -2.1061 C.ar    
  44 C44           21.0613     4.6020    -2.9024 C.ar    
  45 C45           19.8864     5.0757    -3.4493 C.ar    
  46 C46            4.3316    -3.1246     0.5389 C.ar    
  47 C47            4.3257    -4.2179     1.3807 C.ar    
  48 C48            3.6170    -4.1763     2.5682 C.ar    
  49 C49            2.9105    -3.0398     2.9193 C.ar    
  50 C50            2.9131    -1.9383     2.0883 C.ar    
  51 C51            9.9648     4.7983    -2.1095 C.3     
  52 C52           -2.2754    -0.8165     0.6501 C.1     
  53 C53           21.4091    11.6270    -5.4900 C.1     
  54 H54           -0.6930     2.3044     0.5132 H       
  55 H55            1.1037    -1.5724     0.2257 H       
  56 H56            1.5113     3.3461     0.2448 H       
  57 H57            5.6936     0.3301    -2.3040 H       
  58 H58            3.9157     0.4129    -2.4284 H       
  59 H59            3.6303     3.8844     1.1491 H       
  60 H60           15.0019     9.9132    -1.8439 H       
  61 H61           15.4562     5.4994    -4.8657 H       
  62 H62           16.2275     6.9106    -5.6379 H       
  63 H63           20.1770     8.4613    -4.6926 H       
  64 H64           18.1382    12.2147    -4.3851 H       
  65 H65           16.1328    11.0594    -3.5770 H       
  66 H66            9.6425     2.6683    -2.1077 H       
  67 H67            8.8348     3.5332    -3.4374 H       
  68 H68           10.9854     4.6726    -4.0025 H       
  69 H69           11.7930     3.8077    -2.6729 H       
  70 H70           19.9695     8.2320    -2.2085 H       
  71 H71           22.0558     7.3653    -1.2353 H       
  72 H72           22.7549     5.0483    -1.6771 H       
  73 H73           21.3732     3.5858    -3.0929 H       
  74 H74           19.2807     4.4325    -4.0704 H       
  75 H75            4.8848    -3.1584    -0.3880 H       
  76 H76            4.8750    -5.1080     1.1118 H       
  77 H77            3.6151    -5.0347     3.2236 H       
  78 H78            2.3592    -3.0133     3.8476 H       
  79 H79            2.3615    -1.0515     2.3636 H       
  80 H80            9.4158     5.7000    -2.3810 H       
  81 H81           10.2234     4.8351    -1.0513 H       
  82 H82           -3.2190    -1.2643     0.7580 H       
  83 H83           22.2649    12.1188    -5.8482 H       
@<TRIPOS>BOND
   1    1    2 ar
   2    1    6 ar
   3    1   54 1
   4    2    3 ar
   5    2   12 1
   6    3    4 ar
   7    3   55 1
   8    4    5 ar
   9    4    7 1
  10    5    6 ar
  11    5   11 1
  12    6   56 1
  13    7    8 2
  14    7   14 1
  15    8    9 1
  16    9   10 1
  17    9   57 1
  18    9   58 1
  19   10   11 1
  20   10   15 2
  21   11   13 1
  22   12   52 3
  23   13   16 2
  24   13   59 1
  25   14   46 ar
  26   14   50 ar
  27   15   16 1
  28   15   17 1
  29   17   18 1
  30   17   19 2
  31   18   39 1
  32   20   21 1
  33   20   40 1
  34   21   22 1
  35   21   23 2
  36   22   24 1
  37   22   25 2
  38   24   27 2
  39   25   26 1
  40   25   28 1
  41   26   27 1
  42   26   32 1
  43   27   60 1
  44   28   29 1
  45   28   61 1
  46   28   62 1
  47   29   30 2
  48   30   31 1
  49   30   38 1
  50   31   32 ar
  51   31   33 ar
  52   32   36 ar
  53   33   34 ar
  54   33   63 1
  55   34   35 ar
  56   34   37 1
  57   35   36 ar
  58   35   64 1
  59   36   65 1
  60   37   53 3
  61   38   41 ar
  62   38   45 ar
  63   39   51 1
  64   39   66 1
  65   39   67 1
  66   40   51 1
  67   40   68 1
  68   40   69 1
  69   41   42 ar
  70   41   70 1
  71   42   43 ar
  72   42   71 1
  73   43   44 ar
  74   43   72 1
  75   44   45 ar
  76   44   73 1
  77   45   74 1
  78   46   47 ar
  79   46   75 1
  80   47   48 ar
  81   47   76 1
  82   48   49 ar
  83   48   77 1
  84   49   50 ar
  85   49   78 1
  86   50   79 1
  87   51   80 1
  88   51   81 1
  89   52   82 1
  90   53   83 1

#	End of record

