#	Name: ASD01810486
#	Creating user name:	WinNT
#	Creation time:	15. 06. 2019 19:24

#	Modifying user name:	WinNT
#	Modification time:	15. 06. 2019 19:24

#	Program:	/corina/corina34_cracker 3.40 0067  02.08.2006

@<TRIPOS>MOLECULE
ASD01810486
  73   76    0    0    0
SMALL
NO_CHARGES


@<TRIPOS>ATOM
   1 C1            -0.0255     1.4735    -0.5919 C.2     
   2 C2             0.0149     0.0006    -0.6616 C.ar    
   3 C3             1.1670    -0.6593    -1.1170 C.ar    
   4 C4             1.1602    -2.0269    -1.1646 C.ar    
   5 C5             0.0191    -2.7196    -0.7629 C.ar    
   6 N6            -1.0565    -2.0718    -0.3365 N.ar    
   7 C7            -1.0899    -0.7571    -0.2701 C.ar    
   8 O8             0.9439     2.1250    -0.9304 O.2     
   9 N9            -1.1387     2.0974    -0.1583 N.am    
  10 N10            0.0085    -4.1034    -0.8102 N.pl3   
  11 C11            1.1911    -4.8293    -1.2799 C.3     
  12 C12            2.1662    -5.0227    -0.1169 C.3     
  13 C13            0.7682    -6.1955    -1.8235 C.3     
  14 C14           -1.1445     3.4871     0.0012 C.ar    
  15 C15           -2.3116     4.2078    -0.2243 C.ar    
  16 C16           -2.3224     5.5809    -0.0680 C.ar    
  17 C17           -1.1746     6.2459     0.3131 C.ar    
  18 C18            0.0023     5.5315     0.5425 C.ar    
  19 C19            0.0121     4.1450     0.3899 C.ar    
  20 C20           -3.5690     3.4894    -0.6412 C.3     
  21 C21           -1.1919     7.7435     0.4811 C.3     
  22 C22           -0.7751     8.4088    -0.8321 C.3     
  23 C23            1.2334     6.2414     0.9509 C.2     
  24 O24            1.6772     7.1361     0.2582 O.2     
  25 N25            1.8634     5.8964     2.0914 N.am    
  26 C26            3.0421     6.6436     2.5509 C.3     
  27 C27            2.8036     7.1024     3.9930 C.3     
  28 C28            2.4512     5.8901     4.8581 C.3     
  29 C29            1.1643     5.2462     4.3370 C.3     
  30 C30            1.3809     4.7699     2.9018 C.3     
  31 F31            3.4939     4.9590     4.8026 F       
  32 C32            2.2492     6.3329     6.2843 C.ar    
  33 C33            2.2304     5.3942     7.3007 C.ar    
  34 C34            2.0460     5.7925     8.6084 C.ar    
  35 C35            1.8785     7.1465     8.9054 C.ar    
  36 C36            1.8990     8.0885     7.8749 C.ar    
  37 C37            2.0892     7.6767     6.5721 C.ar    
  38 C38            1.6861     7.5672    10.2607 C.1     
  39 N39            1.5335     7.9009    11.3358 N.1     
  40 H40            2.0389    -0.1003    -1.4232 H       
  41 H41            2.0306    -2.5646    -1.5105 H       
  42 H42           -1.9806    -0.2611     0.0864 H       
  43 H43           -1.9359     1.5828     0.0430 H       
  44 H44           -0.7820    -4.5921    -0.5322 H       
  45 H45            1.6775    -4.2583    -2.0708 H       
  46 H46            1.6797    -5.5937     0.6740 H       
  47 H47            3.0460    -5.5628    -0.4664 H       
  48 H48            2.4674    -4.0494     0.2704 H       
  49 H49            0.0736    -6.0578    -2.6521 H       
  50 H50            1.6481    -6.7357    -2.1731 H       
  51 H51            0.2818    -6.7665    -1.0327 H       
  52 H52           -3.2321     6.1355    -0.2450 H       
  53 H53            0.9187     3.5864     0.5699 H       
  54 H54           -4.1339     3.2014     0.2454 H       
  55 H55           -4.1764     4.1497    -1.2604 H       
  56 H56           -3.3064     2.5976    -1.2102 H       
  57 H57           -2.1975     8.0674     0.7494 H       
  58 H58           -0.4957     8.0287     1.2699 H       
  59 H59           -1.4713     8.1236    -1.6208 H       
  60 H60           -0.7877     9.4920    -0.7105 H       
  61 H61            0.2304     8.0849    -1.1004 H       
  62 H62            3.9206     5.9995     2.5130 H       
  63 H63            3.1958     7.5129     1.9116 H       
  64 H64            3.7072     7.5743     4.3787 H       
  65 H65            1.9810     7.8172     4.0160 H       
  66 H66            0.9013     4.3970     4.9677 H       
  67 H67            0.3572     5.9785     4.3568 H       
  68 H68            0.4389     4.4033     2.4939 H       
  69 H69            2.1212     3.9699     2.8930 H       
  70 H70            2.3600     4.3472     7.0695 H       
  71 H71            2.0308     5.0587     9.4007 H       
  72 H72            1.7701     9.1374     8.0977 H       
  73 H73            2.1093     8.4046     5.7745 H       
@<TRIPOS>BOND
   1    1    2 1
   2    1    8 2
   3    1    9 am
   4    2    3 ar
   5    2    7 ar
   6    3    4 ar
   7    3   40 1
   8    4    5 ar
   9    4   41 1
  10    5    6 ar
  11    5   10 1
  12    6    7 ar
  13    7   42 1
  14    9   14 1
  15    9   43 1
  16   10   11 1
  17   10   44 1
  18   11   12 1
  19   11   13 1
  20   11   45 1
  21   12   46 1
  22   12   47 1
  23   12   48 1
  24   13   49 1
  25   13   50 1
  26   13   51 1
  27   14   15 ar
  28   14   19 ar
  29   15   16 ar
  30   15   20 1
  31   16   17 ar
  32   16   52 1
  33   17   18 ar
  34   17   21 1
  35   18   19 ar
  36   18   23 1
  37   19   53 1
  38   20   54 1
  39   20   55 1
  40   20   56 1
  41   21   22 1
  42   21   57 1
  43   21   58 1
  44   22   59 1
  45   22   60 1
  46   22   61 1
  47   23   24 2
  48   23   25 am
  49   25   26 1
  50   25   30 1
  51   26   27 1
  52   26   62 1
  53   26   63 1
  54   27   28 1
  55   27   64 1
  56   27   65 1
  57   28   29 1
  58   28   31 1
  59   28   32 1
  60   29   30 1
  61   29   66 1
  62   29   67 1
  63   30   68 1
  64   30   69 1
  65   32   33 ar
  66   32   37 ar
  67   33   34 ar
  68   33   70 1
  69   34   35 ar
  70   34   71 1
  71   35   36 ar
  72   35   38 1
  73   36   37 ar
  74   36   72 1
  75   37   73 1
  76   38   39 3

#	End of record

