#	Name: ASD01150583
#	Creating user name:	WinNT
#	Creation time:	15. 06. 2019 19:04

#	Modifying user name:	WinNT
#	Modification time:	15. 06. 2019 19:04

#	Program:	/corina/corina34_cracker 3.40 0067  02.08.2006

@<TRIPOS>MOLECULE
ASD01150583
  50   53    0    0    0
SMALL
NO_CHARGES


@<TRIPOS>ATOM
   1 C1             0.4933     1.3920    -0.9463 C.ar    
   2 C2             0.4638     0.0110    -0.9223 C.ar    
   3 C3             1.9479     0.0101     0.9678 C.ar    
   4 C4             1.9790     1.3965     0.9447 C.ar    
   5 C5             1.2509     2.0887    -0.0130 C.ar    
   6 N6             1.2802     3.4880    -0.0388 N.am    
   7 C7             0.1264     4.1736    -0.1213 C.2     
   8 N8             0.1178     5.5194    -0.1484 N.am    
   9 C9             1.2790     6.2039    -0.0925 C.2     
  10 C10            2.5444     5.4600    -0.0021 C.2     
  11 N11            2.5099     4.1537     0.0273 N.2     
  12 O12            1.2794     7.4207    -0.1168 O.2     
  13 C13           -1.1538     6.2413    -0.2391 C.3     
  14 O14           -0.9268     3.5677    -0.1728 O.2     
  15 C15           -1.6751     6.5169     1.1477 C.ar    
  16 O16            3.7302     6.1203     0.0557 O.3     
  17 C17            4.9131     5.3232     0.1422 C.3     
  18 C18            1.1882    -0.6824     0.0308 C.ar    
  19 N19            2.6816    -0.6917     1.9323 N.am    
  20 C20            2.9447    -0.1220     3.1251 C.2     
  21 C21            3.6402    -0.9146     4.2017 C.3     
  22 O22            2.6216     1.0286     3.3321 O.2     
  23 C23           -1.3216     7.6859     1.7955 C.ar    
  24 C24           -1.8045     7.9398     3.0673 C.ar    
  25 C25           -2.6340     7.0292     3.6828 C.ar    
  26 C26           -2.9900     5.8473     3.0451 C.ar    
  27 C27           -2.5072     5.6037     1.7620 C.ar    
  28 C28           -3.3237     7.0305     5.0333 C.3     
  29 C29           -4.3775     5.9119     4.8559 C.3     
  30 O30           -3.7940     5.0841     3.8353 O.3     
  31 F31            1.1574    -2.0329     0.0517 F       
  32 H32           -0.0696     1.9305    -1.6943 H       
  33 H33           -0.1261    -0.5283    -1.6487 H       
  34 H34            2.5683     1.9365     1.6710 H       
  35 H35           -0.9994     7.1845    -0.7633 H       
  36 H36           -1.8770     5.6361    -0.7856 H       
  37 H37            4.9802     4.6767    -0.7328 H       
  38 H38            5.7872     5.9732     0.1816 H       
  39 H39            4.8740     4.7117     1.0436 H       
  40 H40            3.0005    -1.5878     1.7420 H       
  41 H41            4.6177    -1.2361     3.8421 H       
  42 H42            3.7657    -0.2921     5.0876 H       
  43 H43            3.0404    -1.7890     4.4541 H       
  44 H44           -0.6705     8.3984     1.3108 H       
  45 H45           -1.5306     8.8516     3.5771 H       
  46 H46           -2.7786     4.6929     1.2490 H       
  47 H47           -2.6218     6.7817     5.8293 H       
  48 H48           -3.8032     7.9905     5.2248 H       
  49 H49           -4.5050     5.3511     5.7818 H       
  50 H50           -5.3280     6.3265     4.5203 H       
@<TRIPOS>BOND
   1    1    2 ar
   2    1    5 ar
   3    1   32 1
   4    2   18 ar
   5    2   33 1
   6    3    4 ar
   7    3   19 1
   8    3   18 ar
   9    4    5 ar
  10    4   34 1
  11    5    6 1
  12    6    7 am
  13    6   11 1
  14    7    8 am
  15    7   14 2
  16    8    9 am
  17    8   13 1
  18    9   10 1
  19    9   12 2
  20   10   11 2
  21   10   16 1
  22   13   15 1
  23   13   35 1
  24   13   36 1
  25   15   23 ar
  26   15   27 ar
  27   16   17 1
  28   17   37 1
  29   17   38 1
  30   17   39 1
  31   18   31 1
  32   19   20 am
  33   19   40 1
  34   20   21 1
  35   20   22 2
  36   21   41 1
  37   21   42 1
  38   21   43 1
  39   23   24 ar
  40   23   44 1
  41   24   25 ar
  42   24   45 1
  43   25   26 ar
  44   25   28 1
  45   26   27 ar
  46   26   30 1
  47   27   46 1
  48   28   29 1
  49   28   47 1
  50   28   48 1
  51   29   30 1
  52   29   49 1
  53   29   50 1

#	End of record

