#	Name: ASD01410651
#	Creating user name:	WinNT
#	Creation time:	15. 06. 2019 19:18

#	Modifying user name:	WinNT
#	Modification time:	15. 06. 2019 19:18

#	Program:	/corina/corina34_cracker 3.40 0067  02.08.2006

@<TRIPOS>MOLECULE
ASD01410651
  78   82    0    0    0
SMALL
NO_CHARGES


@<TRIPOS>ATOM
   1 C1            -2.2409     3.4052     0.8333 C.ar    
   2 C2            -1.9034     1.2737    -0.2241 C.ar    
   3 C3            -3.2263     0.9353     0.0245 C.ar    
   4 C4            -4.0626     1.8399     0.6964 C.ar    
   5 C5            -3.5599     3.0813     1.0937 C.ar    
   6 O6            -1.7494     4.6110     1.2247 O.3     
   7 C7            -1.4243     5.5094     0.2615 C.ar    
   8 N8            -3.7195    -0.3037    -0.3818 N.am    
   9 C9            -3.8015    -1.3188     0.5010 C.2     
  10 C10           -3.4819    -1.0811     1.9544 C.3     
  11 O11           -4.1325    -2.4236     0.1257 O.2     
  12 C12           -4.1418    -2.1674     2.8060 C.3     
  13 C13           -1.6415    -0.8835     3.6326 C.3     
  14 C14           -2.3014    -1.9699     4.4842 C.3     
  15 C15           -3.8173    -1.9261     4.2816 C.3     
  16 C16           -1.9770    -1.7285     5.9598 C.3     
  17 N17           -1.6912     5.2371    -1.0054 N.ar    
  18 C18           -0.8196     6.7087     0.6152 C.ar    
  19 C19           -0.4935     7.6169    -0.3771 C.ar    
  20 C20           -0.7852     7.2913    -1.6943 C.ar    
  21 C21           -1.3923     6.0826    -1.9730 C.ar    
  22 C22           -1.9660    -1.1249     2.1570 C.3     
  23 C23           -1.4146     2.5002     0.1779 C.ar    
  24 C24           -4.1486    -0.5024    -1.7684 C.3     
  25 C25           -2.9350    -0.4075    -2.7159 C.3     
  26 C26           -2.9500     1.0615    -3.2066 C.3     
  27 C27           -4.4626     1.3515    -3.3710 C.3     
  28 C28           -5.1199     0.6160    -2.1849 C.3     
  29 O29           -6.3696     0.0534    -2.5897 O.3     
  30 C30           -7.4904     0.9142    -2.3776 C.3     
  31 C31           -8.7484     0.2235    -2.8375 C.ar    
  32 C32           -9.4724    -0.5545    -1.9534 C.ar    
  33 C33          -10.6262    -1.1881    -2.3752 C.ar    
  34 C34          -11.0564    -1.0435    -3.6810 C.ar    
  35 C35          -10.3329    -0.2648    -4.5648 C.ar    
  36 C36           -9.1814     0.3724    -4.1418 C.ar    
  37 C37           -5.4690     1.4899     0.9646 C.2     
  38 O38           -5.8978     0.4018     0.6349 O.2     
  39 O39           -6.2793     2.3766     1.5754 O.3     
  40 C40           -0.5231     7.0173     2.0602 C.3     
  41 F41            0.0822     8.2751     2.1537 F       
  42 F42           -1.7160     7.0183     2.7911 F       
  43 F43            0.3398     6.0450     2.5771 F       
  44 H44           -1.2576     0.5793    -0.7410 H       
  45 H45           -4.1999     3.7863     1.6034 H       
  46 H46           -3.8605    -0.1040     2.2546 H       
  47 H47           -5.2218    -2.1363     2.6617 H       
  48 H48           -3.7632    -3.1445     2.5058 H       
  49 H49           -2.0201     0.0935     3.9328 H       
  50 H50           -0.5616    -0.9147     3.7769 H       
  51 H51           -1.9228    -2.9469     4.1840 H       
  52 H52           -4.1960    -0.9490     4.5818 H       
  53 H53           -4.2875    -2.7000     4.8883 H       
  54 H54           -2.3556    -0.7515     6.2600 H       
  55 H55           -2.4471    -2.5024     6.5665 H       
  56 H56           -0.8970    -1.7597     6.1041 H       
  57 H57           -0.0230     8.5576    -0.1319 H       
  58 H58           -0.5441     7.9778    -2.4925 H       
  59 H59           -1.6212     5.8243    -2.9963 H       
  60 H60           -1.5874    -2.1019     1.8568 H       
  61 H61           -1.4959    -0.3509     1.5503 H       
  62 H62           -0.3843     2.7581    -0.0181 H       
  63 H63           -4.6300    -1.4746    -1.8744 H       
  64 H64           -2.0121    -0.6200    -2.1762 H       
  65 H65           -3.0527    -1.0916    -3.5563 H       
  66 H66           -2.5089     1.7225    -2.4605 H       
  67 H67           -2.4327     1.1552    -4.1614 H       
  68 H68           -4.6546     2.4227    -3.3094 H       
  69 H69           -4.8271     0.9514    -4.3172 H       
  70 H70           -5.2720     1.3066    -1.3554 H       
  71 H71           -7.5722     1.1495    -1.3165 H       
  72 H72           -7.3536     1.8351    -2.9445 H       
  73 H73           -9.1363    -0.6675    -0.9333 H       
  74 H74          -11.1915    -1.7965    -1.6847 H       
  75 H75          -11.9575    -1.5391    -4.0107 H       
  76 H76          -10.6688    -0.1521    -5.5850 H       
  77 H77           -8.6161     0.9807    -4.8323 H       
  78 H78           -7.1935     2.1019     1.7300 H       
@<TRIPOS>BOND
   1    1   23 ar
   2    1    6 1
   3    1    5 ar
   4    2    3 ar
   5    2   23 ar
   6    2   44 1
   7    3    4 ar
   8    3    8 1
   9    4    5 ar
  10    4   37 1
  11    5   45 1
  12    6    7 1
  13    7   18 ar
  14    7   17 ar
  15    8    9 am
  16    8   24 1
  17    9   11 2
  18    9   10 1
  19   10   12 1
  20   10   22 1
  21   10   46 1
  22   12   15 1
  23   12   47 1
  24   12   48 1
  25   13   14 1
  26   13   22 1
  27   13   49 1
  28   13   50 1
  29   14   15 1
  30   14   16 1
  31   14   51 1
  32   15   52 1
  33   15   53 1
  34   16   54 1
  35   16   55 1
  36   16   56 1
  37   17   21 ar
  38   18   19 ar
  39   18   40 1
  40   19   20 ar
  41   19   57 1
  42   20   21 ar
  43   20   58 1
  44   21   59 1
  45   22   60 1
  46   22   61 1
  47   23   62 1
  48   24   25 1
  49   24   28 1
  50   24   63 1
  51   25   26 1
  52   25   64 1
  53   25   65 1
  54   26   27 1
  55   26   66 1
  56   26   67 1
  57   27   28 1
  58   27   68 1
  59   27   69 1
  60   28   29 1
  61   28   70 1
  62   29   30 1
  63   30   31 1
  64   30   71 1
  65   30   72 1
  66   31   32 ar
  67   31   36 ar
  68   32   33 ar
  69   32   73 1
  70   33   34 ar
  71   33   74 1
  72   34   35 ar
  73   34   75 1
  74   35   36 ar
  75   35   76 1
  76   36   77 1
  77   37   38 2
  78   37   39 1
  79   39   78 1
  80   40   41 1
  81   40   42 1
  82   40   43 1

#	End of record

