#	Name: ASD05720014
#	Creating user name:	WinNT
#	Creation time:	15. 06. 2019 21:01

#	Modifying user name:	WinNT
#	Modification time:	15. 06. 2019 21:01

#	Program:	/corina/corina34_cracker 3.40 0067  02.08.2006

@<TRIPOS>MOLECULE
ASD05720014
  75   78    0    0    0
SMALL
NO_CHARGES


@<TRIPOS>ATOM
   1 C1             0.2552     1.3206    -1.5221 C.ar    
   2 C2             0.2244    -0.0269    -1.2092 C.ar    
   3 C3             1.3886    -0.7256    -0.9886 C.ar    
   4 C4             2.6368    -0.0893    -1.0758 C.ar    
   5 C5             2.6485     1.2679    -1.3924 C.ar    
   6 C6             1.4741     1.9691    -1.6137 C.ar    
   7 N7             3.8883    -0.6502    -0.8836 N.pl3   
   8 C8             4.9777     0.1571    -1.0190 C.2     
   9 S9             4.3469     1.7616    -1.4248 S.3     
  10 N10            6.2320    -0.1831    -0.8782 N.2     
  11 C11            7.2871     0.8169    -1.0604 C.3     
  12 C12            8.0942     0.9480     0.2328 C.3     
  13 C13            8.7253    -0.4020     0.5791 C.3     
  14 C14            9.6512    -0.8389    -0.5579 C.3     
  15 C15            8.8441    -0.9700    -1.8510 C.3     
  16 C16            8.2129     0.3800    -2.1974 C.3     
  17 O17            7.2294     1.3560     1.2947 O.3     
  18 C18           10.2824    -2.1889    -0.2115 C.3     
  19 C19           11.2162    -2.0223     0.9889 C.3     
  20 C20           11.7570    -3.3908     1.4081 C.3     
  21 C21           10.5911    -4.3042     1.7918 C.3     
  22 C22           11.1203    -5.7083     2.0909 C.3     
  23 C23           12.3821    -1.1089     0.6052 C.3     
  24 O24           12.6433    -3.2327     2.5474 O.3     
  25 C25           13.6441    -4.1190     2.6685 C.2     
  26 C26           14.6041    -4.0179     3.8257 C.3     
  27 N27           15.2768    -5.3091     4.0175 N.3     
  28 C28           16.1927    -5.2654     5.1646 C.3     
  29 C29           17.2825    -4.2217     4.9094 C.3     
  30 C30           16.6314    -2.8518     4.6999 C.3     
  31 C31           15.6465    -2.9370     3.5306 C.3     
  32 O32           13.7752    -4.9977     1.8497 O.2     
  33 H33           10.4362    -0.0949    -0.6934 H       
  34 C34            7.8752     2.1361     2.3029 C.3     
  35 C35            4.0364    -2.0677    -0.5445 C.3     
  36 F36            1.5192     3.2844    -1.9189 F       
  37 H37           -0.6636     1.8604    -1.6977 H       
  38 H38           -0.7253    -0.5361    -1.1369 H       
  39 H39            1.3417    -1.7767    -0.7448 H       
  40 H40            6.8374     1.7787    -1.3071 H       
  41 H41            8.8792     1.6920     0.0972 H       
  42 H42            9.3004    -0.3086     1.5004 H       
  43 H43            7.9403    -1.1460     0.7147 H       
  44 H44            9.5037    -1.2812    -2.6611 H       
  45 H45            8.0591    -1.7140    -1.7155 H       
  46 H46            7.6379     0.2866    -3.1187 H       
  47 H47            8.9979     1.1240    -2.3329 H       
  48 H48            9.4978    -2.9042     0.0350 H       
  49 H49           10.8513    -2.5540    -1.0665 H       
  50 H50           10.6656    -1.5794     1.8189 H       
  51 H51           12.3076    -3.8336     0.5782 H       
  52 H52           10.0945    -3.9069     2.6770 H       
  53 H53            9.8802    -4.3519     0.9670 H       
  54 H54           11.8312    -5.6606     2.9158 H       
  55 H55           10.2897    -6.3590     2.3643 H       
  56 H56           11.6170    -6.1055     1.2057 H       
  57 H57           12.0073    -0.1044     0.4085 H       
  58 H58           13.1013    -1.0745     1.4235 H       
  59 H59           12.8684    -1.4969    -0.2898 H       
  60 H60           14.0558    -3.7561     4.7307 H       
  61 H61           14.6052    -6.0551     4.1193 H       
  62 H62           15.6368    -4.9978     6.0632 H       
  63 H63           16.6521    -6.2445     5.3000 H       
  64 H64           17.9530    -4.1785     5.7677 H       
  65 H65           17.8477    -4.4960     4.0187 H       
  66 H66           16.0982    -2.5597     5.6047 H       
  67 H67           17.4009    -2.1133     4.4750 H       
  68 H68           16.1860    -3.1911     2.6182 H       
  69 H69           15.1482    -1.9759     3.4038 H       
  70 H70            8.6821     1.5557     2.7502 H       
  71 H71            8.2841     3.0419     1.8552 H       
  72 H72            7.1518     2.4059     3.0724 H       
  73 H73            4.1218    -2.6532    -1.4600 H       
  74 H74            4.9332    -2.2050     0.0596 H       
  75 H75            3.1644    -2.3996     0.0190 H       
@<TRIPOS>BOND
   1    1    2 ar
   2    1    6 ar
   3    1   37 1
   4    2    3 ar
   5    2   38 1
   6    3    4 ar
   7    3   39 1
   8    4    5 ar
   9    4    7 1
  10    5    6 ar
  11    5    9 1
  12    6   36 1
  13    7   35 1
  14    7    8 1
  15    8    9 1
  16    8   10 2
  17   10   11 1
  18   11   12 1
  19   11   16 1
  20   11   40 1
  21   12   13 1
  22   12   17 1
  23   12   41 1
  24   13   14 1
  25   13   42 1
  26   13   43 1
  27   14   15 1
  28   14   18 1
  29   14   33 1
  30   15   16 1
  31   15   44 1
  32   15   45 1
  33   16   46 1
  34   16   47 1
  35   17   34 1
  36   18   19 1
  37   18   48 1
  38   18   49 1
  39   19   23 1
  40   19   20 1
  41   19   50 1
  42   20   21 1
  43   20   24 1
  44   20   51 1
  45   21   22 1
  46   21   52 1
  47   21   53 1
  48   22   54 1
  49   22   55 1
  50   22   56 1
  51   23   57 1
  52   23   58 1
  53   23   59 1
  54   24   25 1
  55   25   26 1
  56   25   32 2
  57   26   27 1
  58   26   31 1
  59   26   60 1
  60   27   28 1
  61   27   61 1
  62   28   29 1
  63   28   62 1
  64   28   63 1
  65   29   30 1
  66   29   64 1
  67   29   65 1
  68   30   31 1
  69   30   66 1
  70   30   67 1
  71   31   68 1
  72   31   69 1
  73   34   70 1
  74   34   71 1
  75   34   72 1
  76   35   73 1
  77   35   74 1
  78   35   75 1

#	End of record

