#	Name: ASD08151091
#	Creating user name:	WinNT
#	Creation time:	15. 06. 2019 21:17

#	Modifying user name:	WinNT
#	Modification time:	15. 06. 2019 21:17

#	Program:	/corina/corina34_cracker 3.40 0067  02.08.2006

@<TRIPOS>MOLECULE
ASD08151091
  57   58    0    0    0
SMALL
NO_CHARGES


@<TRIPOS>ATOM
   1 C1            -0.2059     1.5447     0.2590 C.2     
   2 C2            -0.2191     0.0378     0.2572 C.3     
   3 C3             1.0793     3.6695     0.0603 C.ar    
   4 C4             1.0695     2.2673     0.1972 C.ar    
   5 C5             2.2772     1.5639     0.2747 C.ar    
   6 C6             3.4795     2.2350     0.2179 C.ar    
   7 C7             3.5076     3.6268     0.0827 C.ar    
   8 C8             2.3032     4.3512     0.0032 C.ar    
   9 C9            -0.1940     4.4174    -0.0281 C.ar    
  10 C10           -0.5504     5.3152     0.9790 C.ar    
  11 C11           -1.7411     6.0105     0.8902 C.ar    
  12 C12           -2.5797     5.8165    -0.1962 C.ar    
  13 C13           -2.2304     4.9273    -1.1963 C.ar    
  14 C14           -1.0407     4.2322    -1.1218 C.ar    
  15 C15            4.7620     4.3152     0.0256 C.1     
  16 C16            5.7904     4.8795    -0.0213 C.1     
  17 Si17           7.4547     5.7929    -0.0971 Si      
  18 C18            7.1516     7.6222    -0.2775 C.3     
  19 C19            8.4104     5.4734     1.4699 C.3     
  20 C20            8.4342     5.1787    -1.5580 C.3     
  21 F21            4.6381     1.5443     0.2938 F       
  22 F22           -2.0887     6.8802     1.8637 F       
  23 N23            2.3267     5.7115    -0.1300 N.2     
  24 N24            1.2276     6.3603    -0.3174 N.2     
  25 N25            1.2622     7.7367    -0.5768 N.pl3   
  26 C26            2.5359     8.4590    -0.5309 C.3     
  27 C27            3.1224     8.5488    -1.9411 C.3     
  28 C28            0.0246     8.4536    -0.8940 C.3     
  29 C29           -0.5211     9.1147     0.3733 C.3     
  30 O30           -1.2502     2.1604     0.3064 O.2     
  31 H31            0.7951    -0.3343     0.1124 H       
  32 H32           -0.6060    -0.3233     1.2102 H       
  33 H33           -0.8561    -0.3191    -0.5521 H       
  34 H34            2.2667     0.4891     0.3800 H       
  35 H35            0.1026     5.4659     1.8259 H       
  36 H36           -3.5097     6.3615    -0.2619 H       
  37 H37           -2.8882     4.7802    -2.0401 H       
  38 H38           -0.7676     3.5420    -1.9063 H       
  39 H39            6.6565     7.9985     0.6177 H       
  40 H40            8.1032     8.1369    -0.4100 H       
  41 H41            6.5175     7.8015    -1.1458 H       
  42 H42            8.5877     4.4031     1.5755 H       
  43 H43            9.3652     5.9974     1.4264 H       
  44 H44            7.8373     5.8328     2.3246 H       
  45 H45            7.8751     5.3656    -2.4748 H       
  46 H46            9.3890     5.7027    -1.6014 H       
  47 H47            8.6116     4.1084    -1.4524 H       
  48 H48            2.3701     9.4635    -0.1416 H       
  49 H49            3.2315     7.9278     0.1188 H       
  50 H50            3.2882     7.5443    -2.3303 H       
  51 H51            2.4268     9.0800    -2.5908 H       
  52 H52            4.0701     9.0862    -1.9069 H       
  53 H53            0.2295     9.2182    -1.6433 H       
  54 H54           -0.7124     7.7514    -1.2837 H       
  55 H55            0.1748     9.8828     0.7108 H       
  56 H56           -1.4880     9.5695     0.1584 H       
  57 H57           -0.6386     8.3627     1.1536 H       
@<TRIPOS>BOND
   1    1    2 1
   2    1    4 1
   3    1   30 2
   4    2   31 1
   5    2   32 1
   6    2   33 1
   7    3    4 ar
   8    3    8 ar
   9    3    9 1
  10    4    5 ar
  11    5    6 ar
  12    5   34 1
  13    6    7 ar
  14    6   21 1
  15    7    8 ar
  16    7   15 1
  17    8   23 1
  18    9   10 ar
  19    9   14 ar
  20   10   11 ar
  21   10   35 1
  22   11   12 ar
  23   11   22 1
  24   12   13 ar
  25   12   36 1
  26   13   14 ar
  27   13   37 1
  28   14   38 1
  29   15   16 3
  30   16   17 1
  31   17   18 1
  32   17   19 1
  33   17   20 1
  34   18   39 1
  35   18   40 1
  36   18   41 1
  37   19   42 1
  38   19   43 1
  39   19   44 1
  40   20   45 1
  41   20   46 1
  42   20   47 1
  43   23   24 2
  44   24   25 1
  45   25   26 1
  46   25   28 1
  47   26   27 1
  48   26   48 1
  49   26   49 1
  50   27   50 1
  51   27   51 1
  52   27   52 1
  53   28   29 1
  54   28   53 1
  55   28   54 1
  56   29   55 1
  57   29   56 1
  58   29   57 1

#	End of record

