#	Name: ASD04590073
#	Creating user name:	WinNT
#	Creation time:	15. 06. 2019 20:50

#	Modifying user name:	WinNT
#	Modification time:	15. 06. 2019 20:50

#	Program:	/corina/corina34_cracker 3.40 0067  02.08.2006

@<TRIPOS>MOLECULE
ASD04590073
  56   59    0    0    0
SMALL
NO_CHARGES


@<TRIPOS>ATOM
   1 N1            -0.0768     1.2682    -0.0494 N.pl3   
   2 N2            -0.0362    -0.0145     0.0019 N.2     
   3 C3             1.1929    -0.4418    -0.2149 C.2     
   4 C4             2.0015     0.7056    -0.4235 C.2     
   5 C5             1.1590     1.7668    -0.3103 C.2     
   6 C6             1.6419    -1.8464    -0.2361 C.2     
   7 O7             2.8103    -2.1081    -0.4485 O.2     
   8 N8             0.7572    -2.8399    -0.0200 N.am    
   9 C9             1.1618    -4.1748    -0.1363 C.ar    
  10 C10            2.4398    -4.5507     0.2561 C.ar    
  11 C11            2.8370    -5.8683     0.1404 C.ar    
  12 C12            1.9619    -6.8144    -0.3663 C.ar    
  13 C13            0.6871    -6.4417    -0.7582 C.ar    
  14 C14            0.2839    -5.1261    -0.6389 C.ar    
  15 F15            2.3526    -8.1027    -0.4790 F       
  16 N16            3.3785     0.7380    -0.6897 N.am    
  17 C17            4.0034     1.9193    -0.8645 C.2     
  18 C18            5.4514     1.9535    -1.1444 C.ar    
  19 C19            6.1054     3.1799    -1.3269 C.ar    
  20 C20            7.4668     3.2001    -1.5890 C.ar    
  21 C21            8.1739     2.0166    -1.6701 C.ar    
  22 C22            7.5313     0.8028    -1.4908 C.ar    
  23 C23            6.1797     0.7643    -1.2233 C.ar    
  24 O24            3.3735     2.9571    -0.7916 O.2     
  25 O25            5.4094     4.3416    -1.2480 O.3     
  26 C26            6.1429     5.5521    -1.4450 C.3     
  27 C27            5.1968     6.7479    -1.3197 C.3     
  28 N28            4.6832     6.8241     0.0544 N.3     
  29 C29            3.9612     8.0898     0.2793 C.3     
  30 C30            2.5368     7.7265     0.7488 C.3     
  31 C31            2.7091     6.2899     1.3086 C.3     
  32 C32            3.7648     5.7012     0.3398 C.3     
  33 H33           -0.8759     1.8036     0.0759 H       
  34 H34            1.4228     2.8093    -0.4099 H       
  35 H35           -0.1599    -2.6299     0.2161 H       
  36 H36            3.1226    -3.8131     0.6510 H       
  37 H37            3.8309    -6.1610     0.4452 H       
  38 H38            0.0063    -7.1810    -1.1535 H       
  39 H39           -0.7119    -4.8367    -0.9405 H       
  40 H40            3.8809    -0.0897    -0.7479 H       
  41 H41            7.9749     4.1426    -1.7304 H       
  42 H42            9.2341     2.0376    -1.8748 H       
  43 H43            8.0927    -0.1175    -1.5564 H       
  44 H44            5.6838    -0.1842    -1.0794 H       
  45 H45            6.9269     5.6285    -0.6916 H       
  46 H46            6.5925     5.5469    -2.4379 H       
  47 H47            5.7365     7.6646    -1.5572 H       
  48 H48            4.3642     6.6266    -2.0126 H       
  49 H49            4.4673     8.6739     1.0479 H       
  50 H50            3.9117     8.6585    -0.6493 H       
  51 H51            2.2035     8.4078     1.5317 H       
  52 H52            1.8411     7.7323    -0.0903 H       
  53 H53            3.0866     6.3118     2.3309 H       
  54 H54            1.7734     5.7337     1.2513 H       
  55 H55            3.2878     5.3583    -0.5784 H       
  56 H56            4.3032     4.8825     0.8173 H       
@<TRIPOS>BOND
   1    1    2 1
   2    1    5 1
   3    1   33 1
   4    2    3 2
   5    3    4 1
   6    3    6 1
   7    4    5 2
   8    4   16 1
   9    5   34 1
  10    6    7 2
  11    6    8 am
  12    8    9 1
  13    8   35 1
  14    9   10 ar
  15    9   14 ar
  16   10   11 ar
  17   10   36 1
  18   11   12 ar
  19   11   37 1
  20   12   13 ar
  21   12   15 1
  22   13   14 ar
  23   13   38 1
  24   14   39 1
  25   16   17 am
  26   16   40 1
  27   17   18 1
  28   17   24 2
  29   18   19 ar
  30   18   23 ar
  31   19   20 ar
  32   19   25 1
  33   20   21 ar
  34   20   41 1
  35   21   22 ar
  36   21   42 1
  37   22   23 ar
  38   22   43 1
  39   23   44 1
  40   25   26 1
  41   26   27 1
  42   26   45 1
  43   26   46 1
  44   27   28 1
  45   27   47 1
  46   27   48 1
  47   28   29 1
  48   28   32 1
  49   29   30 1
  50   29   49 1
  51   29   50 1
  52   30   31 1
  53   30   51 1
  54   30   52 1
  55   31   32 1
  56   31   53 1
  57   31   54 1
  58   32   55 1
  59   32   56 1

#	End of record

