#	Name: ASD01882248
#	Creating user name:	WinNT
#	Creation time:	15. 06. 2019 19:44

#	Modifying user name:	WinNT
#	Modification time:	15. 06. 2019 19:44

#	Program:	/corina/corina34_cracker 3.40 0067  02.08.2006

@<TRIPOS>MOLECULE
ASD01882248
  53   57    0    0    0
SMALL
NO_CHARGES


@<TRIPOS>ATOM
   1 C1            -0.0281     1.1706    -0.0826 C.2     
   2 C2            -0.0639    -0.1925     0.1640 C.2     
   3 C3            -1.2814    -0.8771     0.3844 C.2     
   4 C4            -2.4224    -0.1831     0.6385 C.2     
   5 N5            -2.2959     1.1800     0.6864 N.pl3   
   6 C6            -1.3354     1.9200    -0.1550 C.3     
   7 C7            -2.9125     2.1225     1.5037 C.2     
   8 C8            -2.2951     3.3052     1.3900 C.2     
   9 N9            -1.2580     3.2390     0.4769 N.pl3   
  10 C10           -4.0790     1.8567     2.3710 C.ar    
  11 N11            1.1220    -0.9021     0.1950 N.pl3   
  12 C12           -4.0865     2.3053     3.6932 C.ar    
  13 C13           -5.1787     2.0537     4.4974 C.ar    
  14 C14           -6.2651     1.3584     3.9965 C.ar    
  15 C15           -6.2640     0.9106     2.6873 C.ar    
  16 C16           -5.1810     1.1607     1.8704 C.ar    
  17 C17            1.3959    -1.9463    -0.8017 C.3     
  18 C18            1.7573    -3.2431    -0.0706 C.3     
  19 C19            2.9155    -2.9749     0.8932 C.3     
  20 C20            2.4860    -1.9376     1.9333 C.3     
  21 C21            2.1353    -0.6222     1.2215 C.3     
  22 C22            3.2963    -4.2560     1.5894 C.ar    
  23 C23            4.5756    -4.7620     1.4546 C.ar    
  24 C24            4.9249    -5.9372     2.0932 C.ar    
  25 C25            3.9950    -6.6062     2.8668 C.ar    
  26 C26            2.7159    -6.0998     3.0023 C.ar    
  27 C27            2.3679    -4.9223     2.3672 C.ar    
  28 C28            1.2191     1.8520    -0.2583 C.1     
  29 N29            2.2084     2.3926    -0.3977 N.1     
  30 H30           -1.3050    -1.9563     0.3503 H       
  31 H31           -3.3708    -0.6764     0.7927 H       
  32 H32           -1.6837     1.9868    -1.1857 H       
  33 H33           -2.5689     4.1933     1.9402 H       
  34 H34           -0.6053     3.9318     0.2900 H       
  35 H35           -3.2390     2.8478     4.0854 H       
  36 H36           -5.1856     2.3999     5.5204 H       
  37 H37           -7.1176     1.1641     4.6304 H       
  38 H38           -7.1150     0.3679     2.3028 H       
  39 H39           -5.1814     0.8107     0.8487 H       
  40 H40            0.5094    -2.1075    -1.4150 H       
  41 H41            2.2290    -1.6387    -1.4336 H       
  42 H42            0.8924    -3.5980     0.4898 H       
  43 H43            2.0560    -3.9990    -0.7968 H       
  44 H44            3.7720    -2.5966     0.3352 H       
  45 H45            1.6143    -2.3048     2.4748 H       
  46 H46            3.3034    -1.7644     2.6333 H       
  47 H47            3.0300    -0.2086     0.7562 H       
  48 H48            1.7348     0.0888     1.9442 H       
  49 H49            5.3022    -4.2393     0.8502 H       
  50 H50            5.9242    -6.3329     1.9873 H       
  51 H51            4.2676    -7.5248     3.3651 H       
  52 H52            1.9892    -6.6227     3.6065 H       
  53 H53            1.3686    -4.5266     2.4731 H       
@<TRIPOS>BOND
   1    1    2 2
   2    1   28 1
   3    1    6 1
   4    2    3 1
   5    2   11 1
   6    3    4 2
   7    3   30 1
   8    4    5 1
   9    4   31 1
  10    5    6 1
  11    5    7 1
  12    6    9 1
  13    6   32 1
  14    7    8 2
  15    7   10 1
  16    8    9 1
  17    8   33 1
  18    9   34 1
  19   10   12 ar
  20   10   16 ar
  21   11   17 1
  22   11   21 1
  23   12   13 ar
  24   12   35 1
  25   13   14 ar
  26   13   36 1
  27   14   15 ar
  28   14   37 1
  29   15   16 ar
  30   15   38 1
  31   16   39 1
  32   17   18 1
  33   17   40 1
  34   17   41 1
  35   18   19 1
  36   18   42 1
  37   18   43 1
  38   19   20 1
  39   19   22 1
  40   19   44 1
  41   20   21 1
  42   20   45 1
  43   20   46 1
  44   21   47 1
  45   21   48 1
  46   22   23 ar
  47   22   27 ar
  48   23   24 ar
  49   23   49 1
  50   24   25 ar
  51   24   50 1
  52   25   26 ar
  53   25   51 1
  54   26   27 ar
  55   26   52 1
  56   27   53 1
  57   28   29 3

#	End of record

