#	Name: ASD01814267
#	Creating user name:	WinNT
#	Creation time:	15. 06. 2019 19:32

#	Modifying user name:	WinNT
#	Modification time:	15. 06. 2019 19:32

#	Program:	/corina/corina34_cracker 3.40 0067  02.08.2006

@<TRIPOS>MOLECULE
ASD01814267
  55   59    0    0    0
SMALL
NO_CHARGES


@<TRIPOS>ATOM
   1 C1            -0.1274     1.8810     0.0730 C.ar    
   2 C2            -0.2478     0.4951     0.0745 C.ar    
   3 C3             0.8555    -0.3050     0.0511 C.ar    
   4 C4             2.1342     0.2726     0.0251 C.ar    
   5 C5             2.2529     1.6838     0.0236 C.ar    
   6 C6             1.1003     2.4757     0.0480 C.ar    
   7 C7             3.2941    -0.5299     0.0001 C.ar    
   8 C8             4.5294     0.0249    -0.0255 C.ar    
   9 C9             4.7024     1.4178    -0.0282 C.ar    
  10 C10            3.5874     2.2753    -0.0036 C.ar    
  11 C11            6.0367     2.0304    -0.0569 C.2     
  12 N12            6.1025     3.3821    -0.0582 N.am    
  13 C13            4.9689     4.1265    -0.0332 C.2     
  14 N14            3.7769     3.6054    -0.0080 N.2     
  15 C15            3.1564    -2.0306     0.0025 C.3     
  16 C16            2.9571    -2.5190    -1.4092 C.ar    
  17 C17            4.0486    -2.8553    -2.1963 C.ar    
  18 C18            3.8184    -3.2998    -3.4884 C.ar    
  19 C19            2.5161    -3.3926    -3.9474 C.ar    
  20 N20            1.5021    -3.0633    -3.1699 N.ar    
  21 C21            1.6849    -2.6425    -1.9332 C.ar    
  22 O22            7.0454     1.3482    -0.0783 O.2     
  23 C23            7.4080     4.0463    -0.0862 C.3     
  24 C24            8.2087     3.5467    -1.2904 C.3     
  25 C25            9.5720     4.2404    -1.3197 C.3     
  26 C26           10.3345     3.9211    -0.0323 C.3     
  27 C27            9.5338     4.4208     1.1719 C.3     
  28 C28            8.1705     3.7270     1.2012 C.3     
  29 O29            7.4965     3.8449    -2.4929 O.3     
  30 C30            5.0960     5.6281    -0.0348 C.3     
  31 Cl31           2.2132    -3.9478    -5.5640 Cl      
  32 H32           -1.0167     2.4937     0.0873 H       
  33 H33           -1.2300     0.0464     0.0949 H       
  34 H34            0.7460    -1.3794     0.0530 H       
  35 H35            1.1818     3.5526     0.0467 H       
  36 H36            5.3979    -0.6167    -0.0439 H       
  37 H37            4.0597    -2.4777     0.4175 H       
  38 H38            2.2976    -2.3157     0.6102 H       
  39 H39            5.0542    -2.7725    -1.8112 H       
  40 H40            4.6447    -3.5699    -4.1292 H       
  41 H41            0.8303    -2.3819    -1.3264 H       
  42 H42            7.2656     5.1240    -0.1664 H       
  43 H43            8.3510     2.4690    -1.2102 H       
  44 H44           10.1425     3.8844    -2.1776 H       
  45 H45            9.4297     5.3181    -1.3999 H       
  46 H46           10.4769     2.8434     0.0479 H       
  47 H47           11.3058     4.4153    -0.0532 H       
  48 H48           10.0770     4.1933     2.0891 H       
  49 H49            9.3915     5.4985     1.0917 H       
  50 H50            7.6000     4.0830     2.0591 H       
  51 H51            8.3128     2.6493     1.2814 H       
  52 H52            7.9465     3.5558    -3.2985 H       
  53 H53            5.2036     5.9826    -1.0599 H       
  54 H54            4.2039     6.0688     0.4103 H       
  55 H55            5.9725     5.9192     0.5441 H       
@<TRIPOS>BOND
   1    1    2 ar
   2    1    6 ar
   3    1   32 1
   4    2    3 ar
   5    2   33 1
   6    3    4 ar
   7    3   34 1
   8    4    5 ar
   9    4    7 ar
  10    5    6 ar
  11    5   10 ar
  12    6   35 1
  13    7    8 ar
  14    7   15 1
  15    8    9 ar
  16    8   36 1
  17    9   10 ar
  18    9   11 1
  19   10   14 1
  20   11   12 am
  21   11   22 2
  22   12   13 1
  23   12   23 1
  24   13   14 2
  25   13   30 1
  26   15   16 1
  27   15   37 1
  28   15   38 1
  29   16   17 ar
  30   16   21 ar
  31   17   18 ar
  32   17   39 1
  33   18   19 ar
  34   18   40 1
  35   19   20 ar
  36   19   31 1
  37   20   21 ar
  38   21   41 1
  39   23   24 1
  40   23   28 1
  41   23   42 1
  42   24   25 1
  43   24   29 1
  44   24   43 1
  45   25   26 1
  46   25   44 1
  47   25   45 1
  48   26   27 1
  49   26   46 1
  50   26   47 1
  51   27   28 1
  52   27   48 1
  53   27   49 1
  54   28   50 1
  55   28   51 1
  56   29   52 1
  57   30   53 1
  58   30   54 1
  59   30   55 1

#	End of record

