#	Name: ASD07300286
#	Creating user name:	WinNT
#	Creation time:	15. 06. 2019 21:09

#	Modifying user name:	WinNT
#	Modification time:	15. 06. 2019 21:09

#	Program:	/corina/corina34_cracker 3.40 0067  02.08.2006

@<TRIPOS>MOLECULE
ASD07300286
  20   20    0    0    0
SMALL
NO_CHARGES


@<TRIPOS>ATOM
   1 C1            -0.0169     1.3956     0.0097 C.ar    
   2 C2             0.0021    -0.0041     0.0020 C.ar    
   3 C3             1.2377    -0.6626    -0.0133 C.ar    
   4 C4             2.3898     0.1039    -0.0202 C.ar    
   5 C5             2.2874     1.4832    -0.0118 C.ar    
   6 N6             1.1107     2.0801     0.0026 N.ar    
   7 C7            -1.2578    -0.7720     0.0104 C.2     
   8 O8            -1.7869    -1.0826    -1.0382 O.2     
   9 O9            -1.8215    -1.1289     1.1809 O.3     
  10 C10            1.3111    -2.1678    -0.0216 C.3     
  11 F11            2.6511    -2.5693    -0.0366 F       
  12 F12            0.6862    -2.6714     1.1243 F       
  13 F13            0.6640    -2.6599    -1.1601 F       
  14 F14           -1.1987     2.0503     0.0188 F       
  15 C15           -3.0603    -1.8832     1.1132 C.3     
  16 H16            3.3599    -0.3706    -0.0316 H       
  17 H17            3.1861     2.0820    -0.0171 H       
  18 H18           -3.8156    -1.2953     0.5916 H       
  19 H19           -2.8893    -2.8151     0.5743 H       
  20 H20           -3.4061    -2.1054     2.1227 H       
@<TRIPOS>BOND
   1    1    2 ar
   2    1    6 ar
   3    1   14 1
   4    2    3 ar
   5    2    7 1
   6    3    4 ar
   7    3   10 1
   8    4    5 ar
   9    4   16 1
  10    5    6 ar
  11    5   17 1
  12    7    8 2
  13    7    9 1
  14    9   15 1
  15   10   11 1
  16   10   12 1
  17   10   13 1
  18   15   18 1
  19   15   19 1
  20   15   20 1

#	End of record

