#	Name: ASD01811088
#	Creating user name:	WinNT
#	Creation time:	15. 06. 2019 19:26

#	Modifying user name:	WinNT
#	Modification time:	15. 06. 2019 19:26

#	Program:	/corina/corina34_cracker 3.40 0067  02.08.2006

@<TRIPOS>MOLECULE
ASD01811088
  55   57    0    0    0
SMALL
NO_CHARGES


@<TRIPOS>ATOM
   1 C1             0.4704     0.5790     1.9682 C.2     
   2 C2             0.2912    -0.4847     0.9570 C.ar    
   3 C3             1.2702    -0.6972    -0.0168 C.ar    
   4 C4             1.1041    -1.6897    -0.9619 C.ar    
   5 C5            -0.0291    -2.4789    -0.9516 C.ar    
   6 C6            -1.0156    -2.2772     0.0162 C.ar    
   7 C7            -0.8516    -1.2810     0.9766 C.ar    
   8 O8             1.5159     1.1969     2.0216 O.2     
   9 N9            -0.5273     0.8674     2.8271 N.am    
  10 N10           -0.3617     1.8501     3.7613 N.3     
  11 C11            2.5100     0.1592    -0.0357 C.3     
  12 C12           -0.2019    -3.5599    -1.9873 C.3     
  13 C13           -1.1072    -3.0501    -3.1105 C.3     
  14 C14           -2.2285    -3.1227     0.0255 C.2     
  15 O15           -2.1257    -4.3334    -0.0105 O.2     
  16 N16           -3.4481    -2.5512     0.0738 N.am    
  17 C17           -4.6569    -3.3762     0.2039 C.3     
  18 C18           -5.6268    -3.0111    -0.9242 C.3     
  19 C19           -5.8890    -1.5035    -0.8982 C.3     
  20 C20           -4.5760    -0.7516    -1.1278 C.3     
  21 C21           -3.5938    -1.0908     0.0036 C.3     
  22 C22           -6.8693    -1.1456    -1.9854 C.ar    
  23 C23           -8.0761    -0.5539    -1.6569 C.ar    
  24 C24           -8.9781    -0.2236    -2.6470 C.ar    
  25 C25           -8.6706    -0.4873    -3.9833 C.ar    
  26 C26           -7.4507    -1.0842    -4.3076 C.ar    
  27 C27           -6.5559    -1.4049    -3.3078 C.ar    
  28 C28           -9.6023    -0.1476    -5.0163 C.1     
  29 N29          -10.3414     0.1219    -5.8358 N.1     
  30 H30            1.8636    -1.8494    -1.7129 H       
  31 H31           -1.6093    -1.1238     1.7299 H       
  32 H32           -1.3631     0.3771     2.7819 H       
  33 H33           -1.1891     1.9517     4.3298 H       
  34 H34            0.4504     1.6723     4.3331 H       
  35 H35            3.2342    -0.2340     0.6778 H       
  36 H36            2.9433     0.1492    -1.0359 H       
  37 H37            2.2495     1.1818     0.2371 H       
  38 H38            0.7713    -3.8281    -2.3984 H       
  39 H39           -0.6552    -4.4369    -1.5251 H       
  40 H40           -1.2321    -3.8320    -3.8596 H       
  41 H41           -2.0804    -2.7820    -2.6993 H       
  42 H42           -0.6539    -2.1732    -3.5727 H       
  43 H43           -4.3896    -4.4303     0.1291 H       
  44 H44           -5.1284    -3.1841     1.1677 H       
  45 H45           -5.1897    -3.2878    -1.8836 H       
  46 H46           -6.5660    -3.5462    -0.7839 H       
  47 H47           -6.3031    -1.2236     0.0705 H       
  48 H48           -4.1488    -1.0496    -2.0853 H       
  49 H49           -4.7673     0.3215    -1.1325 H       
  50 H50           -3.9804    -0.7162     0.9514 H       
  51 H51           -2.6248    -0.6365    -0.2033 H       
  52 H52           -8.3127    -0.3505    -0.6229 H       
  53 H53           -9.9201     0.2375    -2.3892 H       
  54 H54           -7.2066    -1.2909    -5.3392 H       
  55 H55           -5.6103    -1.8628    -3.5576 H       
@<TRIPOS>BOND
   1    1    2 1
   2    1    8 2
   3    1    9 am
   4    2    3 ar
   5    2    7 ar
   6    3    4 ar
   7    3   11 1
   8    4    5 ar
   9    4   30 1
  10    5    6 ar
  11    5   12 1
  12    6    7 ar
  13    6   14 1
  14    7   31 1
  15    9   10 1
  16    9   32 1
  17   10   33 1
  18   10   34 1
  19   11   35 1
  20   11   36 1
  21   11   37 1
  22   12   13 1
  23   12   38 1
  24   12   39 1
  25   13   40 1
  26   13   41 1
  27   13   42 1
  28   14   15 2
  29   14   16 am
  30   16   17 1
  31   16   21 1
  32   17   18 1
  33   17   43 1
  34   17   44 1
  35   18   19 1
  36   18   45 1
  37   18   46 1
  38   19   20 1
  39   19   22 1
  40   19   47 1
  41   20   21 1
  42   20   48 1
  43   20   49 1
  44   21   50 1
  45   21   51 1
  46   22   23 ar
  47   22   27 ar
  48   23   24 ar
  49   23   52 1
  50   24   25 ar
  51   24   53 1
  52   25   26 ar
  53   25   28 1
  54   26   27 ar
  55   26   54 1
  56   27   55 1
  57   28   29 3

#	End of record

