#	Name: ASD02560369
#	Creating user name:	WinNT
#	Creation time:	15. 06. 2019 20:25

#	Modifying user name:	WinNT
#	Modification time:	15. 06. 2019 20:25

#	Program:	/corina/corina34_cracker 3.40 0067  02.08.2006

@<TRIPOS>MOLECULE
ASD02560369
  54   57    0    0    0
SMALL
NO_CHARGES


@<TRIPOS>ATOM
   1 C1             0.1015     1.3921     0.9688 C.2     
   2 C2             0.0825     0.0033     0.7484 C.2     
   3 C3             1.2272    -0.6619     0.4948 C.2     
   4 N4             2.4234     0.0024     0.4480 N.pl3   
   5 C5             2.4732     1.3613     0.6596 C.2     
   6 C6             1.2807     2.0670     0.9258 C.2     
   7 C7             3.7030    -0.4203     0.2156 C.2     
   8 C8             4.5113     0.6942     0.2904 C.2     
   9 N9             3.7318     1.7570     0.5612 N.2     
  10 C10            5.9815     0.7176     0.1047 C.ar    
  11 N11            4.1123    -1.7289    -0.0464 N.3     
  12 C12            2.9890    -2.6671     0.0800 C.3     
  13 C13            3.5039    -4.1010    -0.0607 C.3     
  14 C14            2.7904    -6.4036    -0.2974 C.3     
  15 N15            2.3807    -5.0392     0.0657 N.3     
  16 C16            6.7573    -0.3562     0.5387 C.ar    
  17 C17            8.1267    -0.3337     0.3647 C.ar    
  18 C18            8.7333     0.7556    -0.2408 C.ar    
  19 C19            7.9636     1.8314    -0.6765 C.ar    
  20 C20            6.5907     1.8115    -0.5099 C.ar    
  21 O21            8.5612     2.8990    -1.2704 O.3     
  22 C22            7.7105     3.9667    -1.6926 C.3     
  23 O23           10.0829     0.7741    -0.4095 O.3     
  24 C24           10.8111    -0.3618     0.0611 C.3     
  25 C25            1.6093    -7.3564    -0.0948 C.3     
  26 O26            0.4973    -6.9006    -0.8700 O.3     
  27 C27            0.0713    -5.5754    -0.5421 C.3     
  28 C28            1.2369    -4.6046    -0.7493 C.3     
  29 H29           -0.8186     1.9216     1.1672 H       
  30 H30           -0.8542    -0.5333     0.7828 H       
  31 H31            1.2005    -1.7286     0.3274 H       
  32 H32            1.3047     3.1336     1.0943 H       
  33 H33            4.5407    -1.7983    -0.9573 H       
  34 H34            2.5204    -2.5435     1.0563 H       
  35 H35            2.2574    -2.4654    -0.7023 H       
  36 H36            3.9725    -4.2246    -1.0370 H       
  37 H37            4.2356    -4.3027     0.7217 H       
  38 H38            3.1000    -6.4248    -1.3423 H       
  39 H39            3.6216    -6.7146     0.3355 H       
  40 H40            6.2871    -1.2058     1.0114 H       
  41 H41            8.7266    -1.1663     0.7014 H       
  42 H42            5.9925     2.6450    -0.8473 H       
  43 H43            8.3127     4.7524    -2.1488 H       
  44 H44            6.9907     3.5919    -2.4202 H       
  45 H45            7.1792     4.3705    -0.8307 H       
  46 H46           11.8738    -0.2187    -0.1346 H       
  47 H47           10.6515    -0.4771     1.1332 H       
  48 H48           10.4636    -1.2560    -0.4562 H       
  49 H49            1.8910    -8.3589    -0.4167 H       
  50 H50            1.3342    -7.3759     0.9598 H       
  51 H51           -0.7593    -5.2898    -1.1876 H       
  52 H52           -0.2485    -5.5431     0.4994 H       
  53 H53            0.9340    -3.6023    -0.4463 H       
  54 H54            1.5216    -4.5970    -1.8014 H       
@<TRIPOS>BOND
   1    1    2 1
   2    1    6 2
   3    1   29 1
   4    2    3 2
   5    2   30 1
   6    3    4 1
   7    3   31 1
   8    4    5 1
   9    4    7 1
  10    5    6 1
  11    5    9 2
  12    6   32 1
  13    7    8 2
  14    7   11 1
  15    8    9 1
  16    8   10 1
  17   10   16 ar
  18   10   20 ar
  19   11   12 1
  20   11   33 1
  21   12   13 1
  22   12   34 1
  23   12   35 1
  24   13   15 1
  25   13   36 1
  26   13   37 1
  27   14   15 1
  28   14   25 1
  29   14   38 1
  30   14   39 1
  31   15   28 1
  32   16   17 ar
  33   16   40 1
  34   17   18 ar
  35   17   41 1
  36   18   19 ar
  37   18   23 1
  38   19   20 ar
  39   19   21 1
  40   20   42 1
  41   21   22 1
  42   22   43 1
  43   22   44 1
  44   22   45 1
  45   23   24 1
  46   24   46 1
  47   24   47 1
  48   24   48 1
  49   25   26 1
  50   25   49 1
  51   25   50 1
  52   26   27 1
  53   27   28 1
  54   27   51 1
  55   27   52 1
  56   28   53 1
  57   28   54 1

#	End of record

