#	Name: ASD04880495
#	Creating user name:	WinNT
#	Creation time:	15. 06. 2019 20:53

#	Modifying user name:	WinNT
#	Modification time:	15. 06. 2019 20:53

#	Program:	/corina/corina34_cracker 3.40 0067  02.08.2006

@<TRIPOS>MOLECULE
ASD04880495
  30   32    0    0    0
SMALL
NO_CHARGES


@<TRIPOS>ATOM
   1 C1            -0.0144     1.2118     0.0087 C.2     
   2 O2             0.0625    -0.0016    -0.0136 O.2     
   3 C3             1.2155     2.0309    -0.0197 C.ar    
   4 C4             1.1303     3.4192    -0.1380 C.ar    
   5 C5             2.2841     4.1787    -0.1640 C.ar    
   6 C6             3.5230     3.5639    -0.0732 C.ar    
   7 C7             3.6120     2.1887     0.0442 C.ar    
   8 C8             2.4667     1.4199     0.0775 C.ar    
   9 F9             2.2047     5.5225    -0.2784 F       
  10 N10           -1.2214     1.8097     0.0537 N.am    
  11 N11           -1.4433     3.1781     0.1948 N.2     
  12 C12           -2.6877     3.5106     0.2108 C.2     
  13 C13           -3.5434     2.2724     0.0668 C.3     
  14 C14           -2.5202     1.1248    -0.0446 C.3     
  15 N15           -4.5237     6.6381     0.5152 N.pl3   
  16 N16           -4.4682     5.2463     0.3680 N.2     
  17 C17           -3.1991     4.8873     0.3488 C.2     
  18 C18           -2.4174     6.0547     0.4845 C.2     
  19 C19           -3.2582     7.1060     0.5837 C.2     
  20 H20            0.1650     3.8983    -0.2095 H       
  21 H21            4.4226     4.1612    -0.0946 H       
  22 H22            4.5804     1.7158     0.1145 H       
  23 H23            2.5385     0.3466     0.1737 H       
  24 H24           -4.1765     2.1410     0.9443 H       
  25 H25           -4.1490     2.3292    -0.8377 H       
  26 H26           -2.6141     0.6165    -1.0043 H       
  27 H27           -2.6455     0.4203     0.7776 H       
  28 H28           -5.3313     7.1739     0.5564 H       
  29 H29           -1.3385     6.0989     0.5055 H       
  30 H30           -2.9697     8.1404     0.6980 H       
@<TRIPOS>BOND
   1    1    2 2
   2    1    3 1
   3    1   10 am
   4    3    4 ar
   5    3    8 ar
   6    4    5 ar
   7    4   20 1
   8    5    6 ar
   9    5    9 1
  10    6    7 ar
  11    6   21 1
  12    7    8 ar
  13    7   22 1
  14    8   23 1
  15   10   11 1
  16   10   14 1
  17   11   12 2
  18   12   13 1
  19   12   17 1
  20   13   14 1
  21   13   24 1
  22   13   25 1
  23   14   26 1
  24   14   27 1
  25   15   16 1
  26   15   19 1
  27   15   28 1
  28   16   17 2
  29   17   18 1
  30   18   19 2
  31   18   29 1
  32   19   30 1

#	End of record

