#	Name: ASD00170585
#	Creating user name:	WinNT
#	Creation time:	15. 06. 2019 18:32

#	Modifying user name:	WinNT
#	Modification time:	15. 06. 2019 18:32

#	Program:	/corina/corina34_cracker 3.40 0067  02.08.2006

@<TRIPOS>MOLECULE
ASD00170585
  51   54    0    0    0
SMALL
NO_CHARGES


@<TRIPOS>ATOM
   1 C1            -0.0359     1.5019     0.0101 C.3     
   2 C2            -0.0062    -0.0048     0.0018 C.2     
   3 C3             0.1124    -0.7476     1.1093 C.2     
   4 S4             0.1095    -2.4572     0.7147 S.3     
   5 C5            -0.0529    -2.1516    -0.9539 C.2     
   6 C6            -0.1087    -0.7971    -1.2004 C.2     
   7 C7            -0.2475    -0.2227    -2.5395 C.2     
   8 O8             0.7383    -0.0497    -3.2329 O.2     
   9 C9            -1.5849     0.1474    -3.0502 C.ar    
  10 C10           -1.7337     0.5972    -4.3635 C.ar    
  11 C11           -2.9835     0.9405    -4.8343 C.ar    
  12 C12           -4.0899     0.8399    -4.0071 C.ar    
  13 C13           -3.9485     0.3948    -2.7030 C.ar    
  14 C14           -2.7046     0.0431    -2.2228 C.ar    
  15 N15           -0.1241    -3.1273    -1.9248 N.pl3   
  16 Cl16          -5.6602     1.2739    -4.6069 Cl      
  17 N17            1.3389     2.0187     0.0386 N.3     
  18 C18            1.3609     3.4690    -0.1906 C.3     
  19 C19            2.7871     3.9938    -0.0101 C.3     
  20 C20            3.7150     3.2873    -1.0023 C.3     
  21 C21            3.6368     1.7752    -0.7743 C.3     
  22 C22            2.1860     1.3147    -0.9327 C.3     
  23 C23            0.2302    -0.2021     2.4776 C.ar    
  24 C24           -0.5935    -0.6825     3.4973 C.ar    
  25 C25           -0.4783    -0.1688     4.7723 C.ar    
  26 C26            0.4509     0.8204     5.0417 C.ar    
  27 C27            1.2700     1.3014     4.0356 C.ar    
  28 C28            1.1695     0.7921     2.7575 C.ar    
  29 H29           -0.5402     1.8603    -0.8874 H       
  30 H30           -0.5732     1.8499     0.8923 H       
  31 H31           -0.8717     0.6764    -5.0093 H       
  32 H32           -3.0999     1.2889    -5.8499 H       
  33 H33           -4.8147     0.3190    -2.0625 H       
  34 H34           -2.5955    -0.3042    -1.2060 H       
  35 H35           -0.0093    -4.0600    -1.6844 H       
  36 H36           -0.2889    -2.8812    -2.8485 H       
  37 H37            1.0212     3.6817    -1.2043 H       
  38 H38            0.7002     3.9597     0.5241 H       
  39 H39            2.8059     5.0677    -0.1956 H       
  40 H40            3.1224     3.7937     1.0075 H       
  41 H41            3.4033     3.5187    -2.0208 H       
  42 H42            4.7394     3.6264    -0.8479 H       
  43 H43            4.2627     1.2640    -1.5058 H       
  44 H44            3.9855     1.5403     0.2313 H       
  45 H45            2.1246     0.2407    -0.7569 H       
  46 H46            1.8424     1.5375    -1.9428 H       
  47 H47           -1.3194    -1.4544     3.2882 H       
  48 H48           -1.1151    -0.5393     5.5620 H       
  49 H49            0.5369     1.2192     6.0417 H       
  50 H50            1.9927     2.0741     4.2524 H       
  51 H51            1.8097     1.1681     1.9732 H       
@<TRIPOS>BOND
   1    1    2 1
   2    1   17 1
   3    1   29 1
   4    1   30 1
   5    2    3 2
   6    2    6 1
   7    3    4 1
   8    3   23 1
   9    4    5 1
  10    5    6 2
  11    5   15 1
  12    6    7 1
  13    7    8 2
  14    7    9 1
  15    9   10 ar
  16    9   14 ar
  17   10   11 ar
  18   10   31 1
  19   11   12 ar
  20   11   32 1
  21   12   13 ar
  22   12   16 1
  23   13   14 ar
  24   13   33 1
  25   14   34 1
  26   15   35 1
  27   15   36 1
  28   17   18 1
  29   17   22 1
  30   18   19 1
  31   18   37 1
  32   18   38 1
  33   19   20 1
  34   19   39 1
  35   19   40 1
  36   20   21 1
  37   20   41 1
  38   20   42 1
  39   21   22 1
  40   21   43 1
  41   21   44 1
  42   22   45 1
  43   22   46 1
  44   23   24 ar
  45   23   28 ar
  46   24   25 ar
  47   24   47 1
  48   25   26 ar
  49   25   48 1
  50   26   27 ar
  51   26   49 1
  52   27   28 ar
  53   27   50 1
  54   28   51 1

#	End of record

