#	Name: ASD01881529
#	Creating user name:	WinNT
#	Creation time:	15. 06. 2019 19:42

#	Modifying user name:	WinNT
#	Modification time:	15. 06. 2019 19:42

#	Program:	/corina/corina34_cracker 3.40 0067  02.08.2006

@<TRIPOS>MOLECULE
ASD01881529
  39   41    0    0    0
SMALL
NO_CHARGES


@<TRIPOS>ATOM
   1 C1            -0.0187     1.5258     0.0104 C.3     
   2 C2             0.0021    -0.0041     0.0020 C.3     
   3 C3            -1.4333    -0.5336     0.0129 C.3     
   4 C4            -1.4126    -2.0635     0.0045 C.3     
   5 C5             1.4167     2.0553    -0.0004 C.3     
   6 C6             1.3960     3.5852     0.0080 C.3     
   7 C7             2.8292     4.1544     0.1233 C.3     
   8 N8             2.7621     5.3461    -0.7405 N.pl3   
   9 C9             1.6434     5.2495    -1.5129 C.2     
  10 O10            0.9653     4.0984    -1.2652 O.3     
  11 C11            3.4018     6.5284    -1.0638 C.ar    
  12 C12            2.6111     7.1374    -2.0553 C.ar    
  13 N13            1.5587     6.3156    -2.2834 N.2     
  14 C14            4.5590     7.1458    -0.6256 C.ar    
  15 C15            4.9342     8.3737    -1.1718 C.ar    
  16 C16            4.1409     8.9757    -2.1582 C.ar    
  17 C17            3.0008     8.3701    -2.5931 C.ar    
  18 C18           -2.8479    -2.5931     0.0153 C.3     
  19 C19            6.1310     9.0199    -0.7238 C.1     
  20 N20            7.0805     9.5325    -0.3684 N.1     
  21 H21           -0.5459     1.8868    -0.8726 H       
  22 H22           -0.5289     1.8773     0.9072 H       
  23 H23            0.5123    -0.3556    -0.8948 H       
  24 H24            0.5293    -0.3651     0.8851 H       
  25 H25           -1.9435    -0.1821     0.9097 H       
  26 H26           -1.9605    -0.1726    -0.8702 H       
  27 H27           -0.9024    -2.4150    -0.8923 H       
  28 H28           -0.8854    -2.4246     0.8875 H       
  29 H29            1.9439     1.6943     0.8826 H       
  30 H30            1.9269     1.7038    -0.8972 H       
  31 H31            0.7643     3.9584     0.8140 H       
  32 H32            3.0541     4.4336     1.1527 H       
  33 H33            3.5615     3.4414    -0.2554 H       
  34 H34            5.1684     6.6806     0.1351 H       
  35 H35            4.4357     9.9268    -2.5766 H       
  36 H36            2.3960     8.8419    -3.3533 H       
  37 H37           -3.3581    -2.2415     0.9121 H       
  38 H38           -3.3751    -2.2320    -0.8677 H       
  39 H39           -2.8332    -3.6829     0.0093 H       
@<TRIPOS>BOND
   1    1    2 1
   2    1    5 1
   3    1   21 1
   4    1   22 1
   5    2    3 1
   6    2   23 1
   7    2   24 1
   8    3    4 1
   9    3   25 1
  10    3   26 1
  11    4   18 1
  12    4   27 1
  13    4   28 1
  14    5    6 1
  15    5   29 1
  16    5   30 1
  17    6    7 1
  18    6   10 1
  19    6   31 1
  20    7    8 1
  21    7   32 1
  22    7   33 1
  23    8    9 1
  24    8   11 1
  25    9   10 1
  26    9   13 2
  27   11   12 ar
  28   11   14 ar
  29   12   13 1
  30   12   17 ar
  31   14   15 ar
  32   14   34 1
  33   15   19 1
  34   15   16 ar
  35   16   17 ar
  36   16   35 1
  37   17   36 1
  38   18   37 1
  39   18   38 1
  40   18   39 1
  41   19   20 3

#	End of record

