#	Name: ASD01810104
#	Creating user name:	WinNT
#	Creation time:	15. 06. 2019 19:23

#	Modifying user name:	WinNT
#	Modification time:	15. 06. 2019 19:23

#	Program:	/corina/corina34_cracker 3.40 0067  02.08.2006

@<TRIPOS>MOLECULE
ASD01810104
  64   68    0    0    0
SMALL
NO_CHARGES


@<TRIPOS>ATOM
   1 C1            -0.2786     1.8238     0.9540 C.ar    
   2 C2            -0.3352     0.4413     0.9881 C.ar    
   3 C3             0.8229    -0.3065     0.8745 C.ar    
   4 C4             2.0457     0.3333     0.7253 C.ar    
   5 C5             2.1009     1.7275     0.6906 C.ar    
   6 C6             0.9341     2.4682     0.8059 C.ar    
   7 N7             3.3551    -0.1253     0.5889 N.am    
   8 C8             4.1681     0.9420     0.4765 C.2     
   9 N9             3.4410     2.0737     0.5343 N.am    
  10 O10            5.3766     0.8915     0.3434 O.2     
  11 C11            3.9695     3.4373     0.4480 C.3     
  12 C12            4.9598     3.6756     1.5913 C.3     
  13 C13            5.5540     5.0798     1.4606 C.3     
  14 N14            6.2344     5.2062     0.1654 N.3     
  15 C15            5.2938     5.0282    -0.9481 C.3     
  16 C16            4.6918     3.6224    -0.8893 C.3     
  17 C17            6.9349     6.4933     0.0622 C.3     
  18 C18            7.7316     6.5368    -1.2437 C.3     
  19 C19            8.4882     7.8660    -1.3316 C.3     
  20 N20            7.5289     8.9675    -1.1730 N.am    
  21 C21            6.6490     8.9741     0.0036 C.3     
  22 C22            5.9131     7.6325     0.0766 C.3     
  23 C23            7.4577     9.9534    -2.0893 C.2     
  24 C24            6.5198    12.0048    -2.8463 C.ar    
  25 C25            5.3280    12.5797    -3.2619 C.ar    
  26 C26            5.3497    13.6774    -4.1122 C.ar    
  27 C27            6.5650    14.1960    -4.5438 C.ar    
  28 C28            7.7499    13.6201    -4.1279 C.ar    
  29 C29            7.7313    12.5315    -3.2774 C.ar    
  30 O30            8.2553     9.9899    -3.0062 O.2     
  31 N31            6.5024    10.8988    -1.9891 N.am    
  32 S32            3.8386    14.4114    -4.6438 S.3     
  33 F33            0.7641    -1.6558     0.9091 F       
  34 C34            4.3972    15.7695    -5.7087 C.3     
  35 F35            5.1462    15.2516    -6.7708 F       
  36 F36            3.2861    16.4546    -6.2121 F       
  37 F37            5.1900    16.6498    -4.9646 F       
  38 H38           -1.1873     2.4013     1.0391 H       
  39 H39           -1.2871    -0.0554     1.1043 H       
  40 H40            0.9735     3.5472     0.7794 H       
  41 H41            3.6330    -1.0546     0.5774 H       
  42 H42            3.1492     4.1513     0.5219 H       
  43 H43            4.4414     3.5872     2.5461 H       
  44 H44            5.7589     2.9361     1.5406 H       
  45 H45            4.7558     5.8194     1.5253 H       
  46 H46            6.2702     5.2474     2.2650 H       
  47 H47            4.4969     5.7680    -0.8722 H       
  48 H48            5.8210     5.1583    -1.8932 H       
  49 H49            5.4868     2.8821    -0.9791 H       
  50 H50            3.9821     3.4960    -1.7069 H       
  51 H51            7.6152     6.6053     0.9065 H       
  52 H52            8.4431     5.7113    -1.2635 H       
  53 H53            7.0493     6.4500    -2.0893 H       
  54 H54            9.2347     7.9146    -0.5389 H       
  55 H55            8.9774     7.9445    -2.3025 H       
  56 H56            7.2456     9.1131     0.9052 H       
  57 H57            5.9248     9.7838    -0.0862 H       
  58 H58            5.2479     7.5354    -0.7814 H       
  59 H59            5.3302     7.5869     0.9965 H       
  60 H60            4.3853    12.1744    -2.9252 H       
  61 H61            6.5830    15.0497    -5.2051 H       
  62 H62            8.6929    14.0246    -4.4648 H       
  63 H63            8.6595    12.0839    -2.9540 H       
  64 H64            5.8027    10.8126    -1.3227 H       
@<TRIPOS>BOND
   1    1    2 ar
   2    1    6 ar
   3    1   38 1
   4    2    3 ar
   5    2   39 1
   6    3    4 ar
   7    3   33 1
   8    4    5 ar
   9    4    7 1
  10    5    6 ar
  11    5    9 1
  12    6   40 1
  13    7    8 am
  14    7   41 1
  15    8    9 am
  16    8   10 2
  17    9   11 1
  18   11   12 1
  19   11   16 1
  20   11   42 1
  21   12   13 1
  22   12   43 1
  23   12   44 1
  24   13   14 1
  25   13   45 1
  26   13   46 1
  27   14   15 1
  28   14   17 1
  29   15   16 1
  30   15   47 1
  31   15   48 1
  32   16   49 1
  33   16   50 1
  34   17   18 1
  35   17   22 1
  36   17   51 1
  37   18   19 1
  38   18   52 1
  39   18   53 1
  40   19   20 1
  41   19   54 1
  42   19   55 1
  43   20   21 1
  44   20   23 am
  45   21   22 1
  46   21   56 1
  47   21   57 1
  48   22   58 1
  49   22   59 1
  50   23   30 2
  51   23   31 am
  52   24   25 ar
  53   24   31 1
  54   24   29 ar
  55   25   26 ar
  56   25   60 1
  57   26   27 ar
  58   26   32 1
  59   27   28 ar
  60   27   61 1
  61   28   29 ar
  62   28   62 1
  63   29   63 1
  64   31   64 1
  65   32   34 1
  66   34   35 1
  67   34   36 1
  68   34   37 1

#	End of record

