#	Name: ASD01810368
#	Creating user name:	WinNT
#	Creation time:	15. 06. 2019 19:24

#	Modifying user name:	WinNT
#	Modification time:	15. 06. 2019 19:24

#	Program:	/corina/corina34_cracker 3.40 0067  02.08.2006

@<TRIPOS>MOLECULE
ASD01810368
  57   60    0    0    0
SMALL
NO_CHARGES


@<TRIPOS>ATOM
   1 C1            -0.0471     1.4820    -0.0181 C.3     
   2 C2            -0.0086    -0.0475    -0.0089 C.3     
   3 C3             0.7258    -0.5241     1.2177 C.ar    
   4 C4             0.0590    -0.6535     2.4245 C.ar    
   5 C5             0.7399    -1.0974     3.5724 C.ar    
   6 C6             2.0603    -1.4073     3.5221 C.ar    
   7 C7             2.7660    -1.2869     2.3108 C.ar    
   8 C8             2.0895    -0.8459     1.1452 C.ar    
   9 C9             2.8011    -0.7278    -0.0623 C.ar    
  10 C10            4.1259    -1.0373    -0.0964 C.ar    
  11 C11            4.7903    -1.4710     1.0493 C.ar    
  12 C12            4.1329    -1.6018     2.2343 C.ar    
  13 C13            2.7708    -1.8801     4.7641 C.3     
  14 C14            3.4397    -0.7091     5.4368 C.ar    
  15 C15            2.7611     0.0332     6.3915 C.ar    
  16 C16            3.4153     1.1018     6.9842 C.ar    
  17 C17            4.7145     1.3902     6.6063 C.ar    
  18 N18            5.3291     0.6613     5.6937 N.ar    
  19 C19            4.7386    -0.3655     5.1138 C.ar    
  20 Cl20           5.5455     2.7261     7.3402 Cl      
  21 C21           -1.3788    -0.3222     2.5069 C.2     
  22 O22           -1.9461     0.1655     1.5488 O.2     
  23 N23           -2.0611    -0.5607     3.6445 N.am    
  24 C24           -3.4865    -0.2322     3.7263 C.3     
  25 C25           -4.3102    -1.3916     3.1622 C.3     
  26 C26           -5.7988    -1.0486     3.2476 C.3     
  27 C27           -6.1847    -0.8124     4.7092 C.3     
  28 C28           -5.3610     0.3470     5.2732 C.3     
  29 C29           -3.8724     0.0040     5.1878 C.3     
  30 O30           -3.1031     1.0869     5.7146 O.3     
  31 H31            0.9710     1.8710    -0.0302 H       
  32 H32           -0.5783     1.8267    -0.9053 H       
  33 H33           -0.5616     1.8378     0.8745 H       
  34 H34           -1.0267    -0.4366     0.0031 H       
  35 H35            0.5059    -0.4034    -0.9016 H       
  36 H36            0.2052    -1.1925     4.5059 H       
  37 H37            2.2986    -0.3935    -0.9580 H       
  38 H38            4.6701    -0.9458    -1.0247 H       
  39 H39            5.8420    -1.7106     0.9954 H       
  40 H40            4.6618    -1.9391     3.1135 H       
  41 H41            2.0492    -2.3280     5.4473 H       
  42 H42            3.5227    -2.6212     4.4927 H       
  43 H43            1.7467    -0.2152     6.6664 H       
  44 H44            2.9170     1.7018     7.7313 H       
  45 H45            5.2734    -0.9391     4.3713 H       
  46 H46           -1.6084    -0.9498     4.4091 H       
  47 H47           -3.6852     0.6699     3.1477 H       
  48 H48           -4.0352    -1.5599     2.1210 H       
  49 H49           -4.1114    -2.2938     3.7408 H       
  50 H50           -5.9975    -0.1465     2.6690 H       
  51 H51           -6.3856    -1.8746     2.8458 H       
  52 H52           -7.2452    -0.5681     4.7700 H       
  53 H53           -5.9860    -1.7146     5.2878 H       
  54 H54           -5.5597     1.2491     4.6946 H       
  55 H55           -5.6359     0.5152     6.3144 H       
  56 H56           -3.6736    -0.8982     5.7664 H       
  57 H57           -3.2958     1.2929     6.6395 H       
@<TRIPOS>BOND
   1    1    2 1
   2    1   31 1
   3    1   32 1
   4    1   33 1
   5    2    3 1
   6    2   34 1
   7    2   35 1
   8    3    4 ar
   9    3    8 ar
  10    4    5 ar
  11    4   21 1
  12    5    6 ar
  13    5   36 1
  14    6    7 ar
  15    6   13 1
  16    7    8 ar
  17    7   12 ar
  18    8    9 ar
  19    9   10 ar
  20    9   37 1
  21   10   11 ar
  22   10   38 1
  23   11   12 ar
  24   11   39 1
  25   12   40 1
  26   13   14 1
  27   13   41 1
  28   13   42 1
  29   14   15 ar
  30   14   19 ar
  31   15   16 ar
  32   15   43 1
  33   16   17 ar
  34   16   44 1
  35   17   18 ar
  36   17   20 1
  37   18   19 ar
  38   19   45 1
  39   21   22 2
  40   21   23 am
  41   23   24 1
  42   23   46 1
  43   24   25 1
  44   24   29 1
  45   24   47 1
  46   25   26 1
  47   25   48 1
  48   25   49 1
  49   26   27 1
  50   26   50 1
  51   26   51 1
  52   27   28 1
  53   27   52 1
  54   27   53 1
  55   28   29 1
  56   28   54 1
  57   28   55 1
  58   29   30 1
  59   29   56 1
  60   30   57 1

#	End of record

