#	Name: ASD01100059
#	Creating user name:	WinNT
#	Creation time:	15. 06. 2019 18:58

#	Modifying user name:	WinNT
#	Modification time:	15. 06. 2019 18:58

#	Program:	/corina/corina34_cracker 3.40 0067  02.08.2006

@<TRIPOS>MOLECULE
ASD01100059
  43   44    0    0    0
SMALL
NO_CHARGES


@<TRIPOS>ATOM
   1 C1             0.2698     1.7650    -2.0920 C.ar    
   2 C2            -0.0216     0.4581    -1.7438 C.ar    
   3 C3             0.8593    -0.2598    -0.9548 C.ar    
   4 C4             2.0299     0.3289    -0.5147 C.ar    
   5 C5             2.3204     1.6348    -0.8629 C.ar    
   6 C6             1.4406     2.3527    -1.6513 C.ar    
   7 C7             3.5966     2.2763    -0.3824 C.3     
   8 C8             3.2679     3.3498     0.6570 C.3     
   9 C9             2.7080     2.6857     1.9166 C.3     
  10 C10            4.5396     4.1235     1.0108 C.3     
  11 Cl11          -1.4923    -0.2805    -2.2964 Cl      
  12 C12            4.3112     2.9086    -1.5488 C.2     
  13 N13            5.6351     3.1505    -1.4773 N.am    
  14 O14            3.6949     3.1997    -2.5520 O.2     
  15 C15            6.3132     3.6404    -2.5874 C.2     
  16 N16            5.7693     3.8983    -3.7354 N.2     
  17 C17            6.5638     4.3602    -4.6828 C.2     
  18 C18            7.8398     4.4992    -4.3178 C.2     
  19 S19            7.9845     3.9973    -2.6353 S.3     
  20 S20            9.1501     5.0870    -5.3388 S.o     
  21 C21            2.2274     4.3136     0.0832 C.3     
  22 O22            9.1270     6.5891    -5.0946 O.3     
  23 O23           10.3135     4.6672    -4.6391 O.2     
  24 C24           10.1190     7.3122    -5.8260 C.3     
  25 H25           -0.4154     2.3245    -2.7116 H       
  26 H26            0.6323    -1.2799    -0.6824 H       
  27 H27            2.7174    -0.2313     0.1016 H       
  28 H28            1.6682     3.3728    -1.9230 H       
  29 H29            4.2370     1.5181     0.0684 H       
  30 H30            3.4493     1.9990     2.3254 H       
  31 H31            2.4739     3.4505     2.6571 H       
  32 H32            1.8021     2.1344     1.6646 H       
  33 H33            5.0117     4.4839     0.0968 H       
  34 H34            4.2840     4.9714     1.6463 H       
  35 H35            5.2289     3.4666     1.5412 H       
  36 H36            6.1148     2.9829    -0.6510 H       
  37 H37            6.2098     4.6059    -5.6731 H       
  38 H38            1.3026     3.7726    -0.1174 H       
  39 H39            2.0340     5.1097     0.8022 H       
  40 H40            2.6043     4.7452    -0.8440 H       
  41 H41           11.1098     6.9557    -5.5444 H       
  42 H42            9.9674     7.1576    -6.8943 H       
  43 H43           10.0365     8.3747    -5.5973 H       
@<TRIPOS>BOND
   1    1    2 ar
   2    1    6 ar
   3    1   25 1
   4    2    3 ar
   5    2   11 1
   6    3    4 ar
   7    3   26 1
   8    4    5 ar
   9    4   27 1
  10    5    6 ar
  11    5    7 1
  12    6   28 1
  13    7    8 1
  14    7   12 1
  15    7   29 1
  16    8    9 1
  17    8   10 1
  18    8   21 1
  19    9   30 1
  20    9   31 1
  21    9   32 1
  22   10   33 1
  23   10   34 1
  24   10   35 1
  25   12   13 am
  26   12   14 2
  27   13   15 1
  28   13   36 1
  29   15   16 2
  30   15   19 1
  31   16   17 1
  32   17   18 2
  33   17   37 1
  34   18   19 1
  35   18   20 1
  36   20   22 1
  37   20   23 2
  38   21   38 1
  39   21   39 1
  40   21   40 1
  41   22   24 1
  42   24   41 1
  43   24   42 1
  44   24   43 1

#	End of record

