#	Name: ASD04590666
#	Creating user name:	WinNT
#	Creation time:	15. 06. 2019 20:51

#	Modifying user name:	WinNT
#	Modification time:	15. 06. 2019 20:51

#	Program:	/corina/corina34_cracker 3.40 0067  02.08.2006

@<TRIPOS>MOLECULE
ASD04590666
  46   49    0    0    0
SMALL
NO_CHARGES


@<TRIPOS>ATOM
   1 C1             0.0039     1.3751    -0.2252 C.ar    
   2 C2             0.0222    -0.0019    -0.2339 C.ar    
   3 C3             1.2179    -0.6867    -0.0221 C.ar    
   4 C4             2.4184     0.0234     0.1967 C.ar    
   5 C5             2.3652     1.4172     0.2176 C.ar    
   6 C6             1.1759     2.0786     0.0020 C.ar    
   7 N7             3.5759    -0.7196     0.3542 N.3     
   8 C8             4.7934     0.0282     0.7044 C.3     
   9 C9             3.6193     2.1696     0.4989 C.3     
  10 C10            3.8377     3.5018    -0.2163 C.3     
  11 C11            4.7762     1.3133    -0.0919 C.3     
  12 C12            5.9728     2.2462     0.0029 C.3     
  13 C13            5.3827     3.6732    -0.1504 C.3     
  14 S14            5.9905     4.4379    -1.6789 S.3     
  15 C15            7.7045     4.6775    -1.3478 C.ar    
  16 Cl16           3.2767     3.4089    -1.9273 Cl      
  17 C17           10.3964     5.0529    -0.8283 C.ar    
  18 C18            9.5833     4.4732     0.1289 C.ar    
  19 C19            8.2398     4.2843    -0.1268 C.ar    
  20 C20            8.5254     5.2547    -2.3089 C.ar    
  21 C21            9.8684     5.4405    -2.0461 C.ar    
  22 N22            7.9613     5.6694    -3.6129 N.pl3   
  23 O23            8.6816     6.1753    -4.4548 O.2     
  24 O24            6.7769     5.5049    -3.8441 O.2     
  25 N25            1.1498     3.5585     0.0131 N.pl3   
  26 O26            1.5950     4.1683     0.9689 O.2     
  27 O27            0.6832     4.1665    -0.9335 O.2     
  28 C28            1.2287    -2.1596    -0.0261 C.2     
  29 O29            0.0850    -2.8413    -0.2341 O.3     
  30 O30            2.2691    -2.7600     0.1582 O.2     
  31 H31           -0.9207     1.9054    -0.3994 H       
  32 H32           -0.8913    -0.5522    -0.4047 H       
  33 H33            3.4282    -1.4885     0.9906 H       
  34 H34            4.7968     0.2528     1.7710 H       
  35 H35            5.6756    -0.5571     0.4449 H       
  36 H36            3.7514     2.2843     1.5747 H       
  37 H37            3.3357     4.3117     0.3130 H       
  38 H38            4.5712     1.0931    -1.1396 H       
  39 H39            6.4600     2.1399     0.9722 H       
  40 H40            6.6788     2.0398    -0.8015 H       
  41 H41            5.6552     4.2854     0.7093 H       
  42 H42           11.4470     5.1994    -0.6255 H       
  43 H43            9.9990     4.1717     1.0790 H       
  44 H44            7.6054     3.8320     0.6211 H       
  45 H45           10.5062     5.8931    -2.7909 H       
  46 H46            0.1419    -3.8066    -0.2278 H       
@<TRIPOS>BOND
   1    1    2 ar
   2    1    6 ar
   3    1   31 1
   4    2    3 ar
   5    2   32 1
   6    3    4 ar
   7    3   28 1
   8    4    5 ar
   9    4    7 1
  10    5    6 ar
  11    5    9 1
  12    6   25 1
  13    7    8 1
  14    7   33 1
  15    8   11 1
  16    8   34 1
  17    8   35 1
  18    9   11 1
  19    9   10 1
  20    9   36 1
  21   10   13 1
  22   10   16 1
  23   10   37 1
  24   11   12 1
  25   11   38 1
  26   12   13 1
  27   12   39 1
  28   12   40 1
  29   13   14 1
  30   13   41 1
  31   14   15 1
  32   15   20 ar
  33   15   19 ar
  34   17   18 ar
  35   17   21 ar
  36   17   42 1
  37   18   19 ar
  38   18   43 1
  39   19   44 1
  40   20   21 ar
  41   20   22 1
  42   21   45 1
  43   22   23 2
  44   22   24 2
  45   25   26 2
  46   25   27 2
  47   28   29 1
  48   28   30 2
  49   29   46 1

#	End of record

