#	Name: ASD01811066
#	Creating user name:	WinNT
#	Creation time:	15. 06. 2019 19:26

#	Modifying user name:	WinNT
#	Modification time:	15. 06. 2019 19:26

#	Program:	/corina/corina34_cracker 3.40 0067  02.08.2006

@<TRIPOS>MOLECULE
ASD01811066
  41   44    0    0    0
SMALL
NO_CHARGES


@<TRIPOS>ATOM
   1 C1            -0.0171     1.4091     0.0098 C.2     
   2 C2             0.0021    -0.0041     0.0020 C.2     
   3 C3            -1.2517    -0.8478    -0.0050 C.3     
   4 C4            -2.4593    -0.0331     0.3361 C.2     
   5 C5            -2.5141     1.3027     0.3499 C.2     
   6 C6            -1.3271     2.1306     0.0348 C.2     
   7 C7            -1.4363    -1.4585    -1.3956 C.3     
   8 C8            -2.6142    -2.3984    -1.3791 C.ar    
   9 C9            -3.8794    -1.9227    -1.6728 C.ar    
  10 C10           -4.9617    -2.7791    -1.6592 C.ar    
  11 C11           -4.7781    -4.1250    -1.3489 C.ar    
  12 C12           -3.5013    -4.5987    -1.0539 C.ar    
  13 C13           -2.4253    -3.7347    -1.0760 C.ar    
  14 C14           -5.9380    -5.0504    -1.3322 C.ar    
  15 C15           -5.7543    -6.3963    -1.0219 C.ar    
  16 C16           -6.8367    -7.2525    -1.0079 C.ar    
  17 C17           -8.1019    -6.7769    -1.3016 C.ar    
  18 C18           -8.2899    -5.4418    -1.6107 C.ar    
  19 C19           -7.2156    -4.5754    -1.6212 C.ar    
  20 O20           -1.4122     3.3227    -0.1892 O.2     
  21 C21           -3.7877     1.9680     0.6867 C.2     
  22 O22           -4.7703     1.3027     0.9471 O.2     
  23 O23           -3.8606     3.3131     0.7054 O.3     
  24 N24            1.1563     1.9818     0.0017 N.2     
  25 S25            2.2832     0.9033    -0.0072 S.3     
  26 C26            1.2642    -0.4778    -0.0045 C.2     
  27 H27           -1.1454    -1.6506     0.7246 H       
  28 H28           -3.3617    -0.5684     0.5920 H       
  29 H29           -1.6153    -0.6643    -2.1204 H       
  30 H30           -0.5369    -2.0080    -1.6734 H       
  31 H31           -4.0207    -0.8793    -1.9128 H       
  32 H32           -5.9493    -2.4066    -1.8883 H       
  33 H33           -3.3534    -5.6410    -0.8127 H       
  34 H34           -1.4353    -4.1008    -0.8475 H       
  35 H35           -4.7667    -6.7688    -0.7931 H       
  36 H36           -6.6954    -8.2959    -0.7675 H       
  37 H37           -8.9460    -7.4505    -1.2898 H       
  38 H38           -9.2799    -5.0758    -1.8396 H       
  39 H39           -7.3636    -3.5331    -1.8624 H       
  40 H40           -4.7160     3.7033     0.9316 H       
  41 H41            1.5710    -1.5133    -0.0067 H       
@<TRIPOS>BOND
   1    1    2 1
   2    1   24 2
   3    1    6 1
   4    2    3 1
   5    2   26 2
   6    3    4 1
   7    3    7 1
   8    3   27 1
   9    4    5 2
  10    4   28 1
  11    5    6 1
  12    5   21 1
  13    6   20 2
  14    7    8 1
  15    7   29 1
  16    7   30 1
  17    8    9 ar
  18    8   13 ar
  19    9   10 ar
  20    9   31 1
  21   10   11 ar
  22   10   32 1
  23   11   12 ar
  24   11   14 1
  25   12   13 ar
  26   12   33 1
  27   13   34 1
  28   14   15 ar
  29   14   19 ar
  30   15   16 ar
  31   15   35 1
  32   16   17 ar
  33   16   36 1
  34   17   18 ar
  35   17   37 1
  36   18   19 ar
  37   18   38 1
  38   19   39 1
  39   21   22 2
  40   21   23 1
  41   23   40 1
  42   24   25 1
  43   25   26 1
  44   26   41 1

#	End of record

