#	Name: ASD03090054
#	Creating user name:	WinNT
#	Creation time:	15. 06. 2019 20:28

#	Modifying user name:	WinNT
#	Modification time:	15. 06. 2019 20:28

#	Program:	/corina/corina34_cracker 3.40 0067  02.08.2006

@<TRIPOS>MOLECULE
ASD03090054
  40   42    0    0    0
SMALL
NO_CHARGES


@<TRIPOS>ATOM
   1 N1            -0.1555     1.3647     0.0273 N.am    
   2 C2            -0.4771     0.1613    -0.4874 C.2     
   3 O3             0.3335    -0.4502    -1.1561 O.2     
   4 N4            -1.6973    -0.3643    -0.2607 N.am    
   5 O5            -1.2457    -2.3923    -1.5429 O.3     
   6 N6            -1.8151    -3.4122    -1.8546 N.2     
   7 C7            -3.0256    -3.4579    -1.3734 C.2     
   8 C8            -3.2151    -2.2631    -0.6503 C.2     
   9 C9            -2.0282    -1.6027    -0.7903 C.2     
  10 C10           -4.0265    -4.5697    -1.5553 C.3     
  11 F11           -3.4250    -5.6313    -2.2398 F       
  12 F12           -4.4654    -5.0116    -0.3026 F       
  13 F13           -5.1182    -4.0984    -2.2924 F       
  14 C14            1.1452     1.8583    -0.1094 C.ar    
  15 C15            1.3618     3.2341    -0.2684 C.ar    
  16 C16            2.6635     3.7175    -0.4041 C.ar    
  17 C17            3.7313     2.8374    -0.3811 C.ar    
  18 C18            3.5105     1.4755    -0.2238 C.ar    
  19 C19            2.2252     0.9891    -0.0825 C.ar    
  20 O20            0.2990     5.5085    -0.3395 O.3     
  21 C21            0.2175     4.1674    -0.2925 C.2     
  22 N22           -1.0502     3.8268    -0.2718 N.2     
  23 C23           -1.7947     4.9430    -0.3051 C.2     
  24 C24           -0.9582     5.9954    -0.3474 C.2     
  25 O25            5.0004     3.3076    -0.5133 O.3     
  26 C26            6.0557     2.3446    -0.4807 C.3     
  27 C27            7.4005     3.0561    -0.6433 C.3     
  28 H28           -0.8276     1.8900     0.4891 H       
  29 H29           -2.3440     0.1235     0.2729 H       
  30 H30           -4.0947    -1.9439    -0.1111 H       
  31 H31            2.8375     4.7762    -0.5273 H       
  32 H32            4.3479     0.7937    -0.2073 H       
  33 H33            2.0610    -0.0707     0.0447 H       
  34 H34           -2.8737     4.9880    -0.2993 H       
  35 H35           -1.2412     7.0371    -0.3808 H       
  36 H36            6.0368     1.8170     0.4728 H       
  37 H37            5.9216     1.6310    -1.2936 H       
  38 H38            7.4194     3.5838    -1.5969 H       
  39 H39            7.5346     3.7697     0.1696 H       
  40 H40            8.2054     2.3216    -0.6185 H       
@<TRIPOS>BOND
   1    1    2 am
   2    1   14 1
   3    1   28 1
   4    2    3 2
   5    2    4 am
   6    4    9 1
   7    4   29 1
   8    5    6 1
   9    5    9 1
  10    6    7 2
  11    7    8 1
  12    7   10 1
  13    8    9 2
  14    8   30 1
  15   10   11 1
  16   10   12 1
  17   10   13 1
  18   14   15 ar
  19   14   19 ar
  20   15   16 ar
  21   15   21 1
  22   16   17 ar
  23   16   31 1
  24   17   18 ar
  25   17   25 1
  26   18   19 ar
  27   18   32 1
  28   19   33 1
  29   20   21 1
  30   20   24 1
  31   21   22 2
  32   22   23 1
  33   23   24 2
  34   23   34 1
  35   24   35 1
  36   25   26 1
  37   26   27 1
  38   26   36 1
  39   26   37 1
  40   27   38 1
  41   27   39 1
  42   27   40 1

#	End of record

