#	Name: ASD09720016
#	Creating user name:	WinNT
#	Creation time:	15. 06. 2019 21:22

#	Modifying user name:	WinNT
#	Modification time:	15. 06. 2019 21:22

#	Program:	/corina/corina34_cracker 3.40 0067  02.08.2006

@<TRIPOS>MOLECULE
ASD09720016
  30   31    0    0    0
SMALL
NO_CHARGES


@<TRIPOS>ATOM
   1 C1            -0.2511     0.3312     0.8694 C.2     
   2 S2             0.1834     1.1168    -0.6387 S.3     
   3 C3            -1.4300     1.5667    -0.9541 C.2     
   4 C4            -2.2543     1.1398     0.0386 C.2     
   5 C5            -1.5601     0.4231     1.0830 C.2     
   6 Cl6            0.8709    -0.4619     1.9305 Cl      
   7 Cl7           -1.9502     2.4514    -2.3542 Cl      
   8 C8            -3.7074     1.3798     0.0464 C.2     
   9 N9            -4.5290     0.3828    -0.0486 N.2     
  10 C10           -4.2383     2.7851     0.1650 C.3     
  11 O11           -4.0331    -0.9244    -0.2734 O.3     
  12 S12           -6.0479     2.7500     0.1455 S.3     
  13 C13           -6.3889     4.4723     0.2937 C.ar    
  14 C14           -5.3454     5.3863     0.3835 C.ar    
  15 C15           -5.6154     6.7341     0.4994 C.ar    
  16 C16           -6.9247     7.1885     0.5269 C.ar    
  17 C17           -7.9728     6.2990     0.4388 C.ar    
  18 C18           -7.7173     4.9303     0.3159 C.ar    
  19 C19           -8.8327     3.9737     0.2212 C.2     
  20 O20           -8.6059     2.7845     0.1145 O.2     
  21 O21          -10.1051     4.4169     0.2529 O.3     
  22 H22           -2.0525     0.0106     1.9512 H       
  23 H23           -3.8936     3.2260     1.1003 H       
  24 H24           -3.8774     3.3818    -0.6727 H       
  25 H25           -4.7210    -1.6017    -0.3297 H       
  26 H26           -4.3224     5.0409     0.3628 H       
  27 H27           -4.8011     7.4401     0.5695 H       
  28 H28           -7.1243     8.2460     0.6183 H       
  29 H29           -8.9908     6.6590     0.4611 H       
  30 H30          -10.8036     3.7514     0.1876 H       
@<TRIPOS>BOND
   1    1    2 1
   2    1    6 1
   3    1    5 2
   4    2    3 1
   5    3    4 2
   6    3    7 1
   7    4    5 1
   8    4    8 1
   9    5   22 1
  10    8    9 2
  11    8   10 1
  12    9   11 1
  13   10   12 1
  14   10   23 1
  15   10   24 1
  16   11   25 1
  17   12   13 1
  18   13   14 ar
  19   13   18 ar
  20   14   15 ar
  21   14   26 1
  22   15   16 ar
  23   15   27 1
  24   16   17 ar
  25   16   28 1
  26   17   18 ar
  27   17   29 1
  28   18   19 1
  29   19   20 2
  30   19   21 1
  31   21   30 1

#	End of record

