#	Name: ASD01200264
#	Creating user name:	WinNT
#	Creation time:	15. 06. 2019 19:08

#	Modifying user name:	WinNT
#	Modification time:	15. 06. 2019 19:08

#	Program:	/corina/corina34_cracker 3.40 0067  02.08.2006

@<TRIPOS>MOLECULE
ASD01200264
  38   40    0    0    0
SMALL
NO_CHARGES


@<TRIPOS>ATOM
   1 C1             3.7288     2.1672    -3.4873 C.2     
   2 C2             4.0870     0.8971    -3.7423 C.2     
   3 N3             4.0660     0.2117    -2.5872 N.2     
   4 C4             3.7050     1.0141    -1.6130 C.2     
   5 N5             3.4839     2.2516    -2.1354 N.pl3   
   6 C6             3.0651     3.4466    -1.3986 C.3     
   7 S7             3.5347     0.5655     0.0824 S.3     
   8 C8             3.8286    -1.1683    -0.0289 C.ar    
   9 C9             5.1291    -1.6440    -0.1926 C.ar    
  10 F10            6.1593    -0.7731    -0.2657 F       
  11 C11            5.3691    -3.0019    -0.2799 C.ar    
  12 C12            4.3150    -3.9021    -0.2055 C.ar    
  13 C13            3.0033    -3.4291    -0.0411 C.ar    
  14 C14            2.7696    -2.0537     0.0521 C.ar    
  15 C15            1.8794    -4.3775     0.0382 C.2     
  16 N16            4.5576    -5.2690    -0.2939 N.pl3   
  17 N17            0.6126    -3.9193     0.0778 N.am    
  18 O18            2.0945    -5.5742     0.0679 O.2     
  19 C19           -0.4474    -4.8138     0.1526 C.2     
  20 N20           -1.6994    -4.4798     0.1956 N.2     
  21 C21           -2.5779    -5.4625     0.2650 C.2     
  22 C22           -2.0429    -6.6848     0.2814 C.2     
  23 S23           -0.2915    -6.5159     0.1939 S.3     
  24 C24           -4.0647    -5.2234     0.3220 C.3     
  25 H25            3.6524     2.9700    -4.2056 H       
  26 H26            4.3472     0.4959    -4.7107 H       
  27 H27            3.9459     3.9876    -1.0530 H       
  28 H28            2.4772     4.0898    -2.0534 H       
  29 H29            2.4604     3.1513    -0.5411 H       
  30 H30            6.3788    -3.3637    -0.4066 H       
  31 H31            1.7631    -1.6832     0.1786 H       
  32 H32            5.4502    -5.5912    -0.4946 H       
  33 H33            3.8341    -5.9000    -0.1549 H       
  34 H34            0.4410    -2.9649     0.0541 H       
  35 H35           -2.5885    -7.6153     0.3354 H       
  36 H36           -4.4678    -5.1988    -0.6904 H       
  37 H37           -4.5408    -6.0274     0.8832 H       
  38 H38           -4.2609    -4.2709     0.8144 H       
@<TRIPOS>BOND
   1    1    2 2
   2    1    5 1
   3    1   25 1
   4    2    3 1
   5    2   26 1
   6    3    4 2
   7    4    5 1
   8    4    7 1
   9    5    6 1
  10    6   27 1
  11    6   28 1
  12    6   29 1
  13    7    8 1
  14    8    9 ar
  15    8   14 ar
  16    9   10 1
  17    9   11 ar
  18   11   12 ar
  19   11   30 1
  20   12   13 ar
  21   12   16 1
  22   13   14 ar
  23   13   15 1
  24   14   31 1
  25   15   17 am
  26   15   18 2
  27   16   32 1
  28   16   33 1
  29   17   19 1
  30   17   34 1
  31   19   20 2
  32   19   23 1
  33   20   21 1
  34   21   22 2
  35   21   24 1
  36   22   23 1
  37   22   35 1
  38   24   36 1
  39   24   37 1
  40   24   38 1

#	End of record

