#	Name: ASD02440020
#	Creating user name:	WinNT
#	Creation time:	15. 06. 2019 20:21

#	Modifying user name:	WinNT
#	Modification time:	15. 06. 2019 20:21

#	Program:	/corina/corina34_cracker 3.40 0067  02.08.2006

@<TRIPOS>MOLECULE
ASD02440020
  97  102    0    0    0
SMALL
NO_CHARGES


@<TRIPOS>ATOM
   1 C1             1.4691     2.8647     0.3474 C.3     
   2 C2             0.6689     1.6815    -0.1874 C.3     
   3 C3             0.6862     0.5067     0.7968 C.3     
   4 C4             2.1001     0.1736     1.2210 C.3     
   5 C5             2.9367     1.3522     1.7052 C.3     
   6 C6             2.9108     2.4410     0.6156 C.3     
   7 C7             2.1677    -0.9575     2.2447 C.3     
   8 C8             3.6151    -1.4807     2.2416 C.3     
   9 C9             4.5800    -0.3817     2.6770 C.3     
  10 C10            4.3886     0.8945     1.8671 C.3     
  11 C11            6.0292    -0.8536     2.5426 C.3     
  12 C12            7.0059     0.2926     2.5886 C.2     
  13 C13            6.6650     1.5452     2.5623 C.2     
  14 C14            5.2364     2.0131     2.4775 C.3     
  15 C15            6.3759    -1.9171     3.5763 C.3     
  16 C16            7.8674    -2.2626     3.5641 C.3     
  17 C17            8.7088    -1.0064     3.8050 C.3     
  18 C18            8.4846    -0.0561     2.6278 C.3     
  19 C19           10.1872    -1.3815     3.8885 C.3     
  20 C20           11.0516    -0.1318     4.0275 C.3     
  21 C21           10.8173     0.8365     2.8702 C.3     
  22 C22            9.3338     1.1970     2.7697 C.3     
  23 C23           11.6168     2.1208     3.1350 C.3     
  24 C24           11.3042     0.2208     1.5595 C.3     
  25 C25            8.2823    -0.3594     5.0950 C.2     
  26 O26            7.8573     0.7717     5.0920 O.2     
  27 O27            8.3739    -1.0388     6.2490 O.3     
  28 C28            6.2018    -1.4951     1.1565 C.3     
  29 C29            4.3303    -0.0985     4.1689 C.3     
  30 C30            2.4052     1.9715     2.9921 C.3     
  31 C31           -0.2559     0.7777     1.9641 C.3     
  32 C32            0.1157    -0.7085     0.0240 C.3     
  33 O33           -0.6861     2.0848    -0.4074 O.3     
  34 C34           -0.9882     2.5778    -1.6263 C.2     
  35 C35           -2.3535     3.0098    -1.9225 C.2     
  36 O36           -0.1250     2.6629    -2.4788 O.2     
  37 C37           -2.6556     3.5028    -3.1414 C.2     
  38 C38           -4.0297     3.9376    -3.4395 C.ar    
  39 C39           -4.3468     4.4492    -4.7019 C.ar    
  40 C40           -5.6365     4.8544    -4.9734 C.ar    
  41 C41           -6.6159     4.7565    -4.0004 C.ar    
  42 C42           -6.3100     4.2513    -2.7486 C.ar    
  43 C43           -5.0264     3.8360    -2.4637 C.ar    
  44 H44            1.4764     3.6550    -0.4172 H       
  45 H45            1.0039     3.2728     1.2379 H       
  46 H46            1.0981     1.3529    -1.1378 H       
  47 H47            2.6188    -0.2118     0.3082 H       
  48 H48            3.3527     2.0389    -0.2958 H       
  49 H49            3.4882     3.2987     0.9573 H       
  50 H50            1.8879    -0.6269     3.2340 H       
  51 H51            1.5158    -1.7818     1.9461 H       
  52 H52            3.6798    -2.3222     2.9335 H       
  53 H53            3.8134    -1.8286     1.2310 H       
  54 H54            4.7759     0.7132     0.8451 H       
  55 H55            7.4333     2.3029     2.6009 H       
  56 H56            5.2028     2.8881     1.8176 H       
  57 H57            4.9002     2.3073     3.4622 H       
  58 H58            6.0955    -1.6502     4.5875 H       
  59 H59            5.8201    -2.8363     3.3208 H       
  60 H60            8.0721    -2.9786     4.3664 H       
  61 H61            8.1473    -2.7121     2.6147 H       
  62 H62            8.7450    -0.5726     1.6978 H       
  63 H63           10.3379    -2.0190     4.7678 H       
  64 H64           10.4730    -1.9477     3.0034 H       
  65 H65           10.8475     0.3715     4.9721 H       
  66 H66           12.1080    -0.4292     4.0274 H       
  67 H67            9.1907     1.8282     1.8821 H       
  68 H68            9.0365     1.7718     3.6458 H       
  69 H69           12.6774     1.8800     3.2079 H       
  70 H70           11.4591     2.8224     2.3159 H       
  71 H71           11.2815     2.5715     4.0691 H       
  72 H72           10.7588    -0.7031     1.3673 H       
  73 H73           11.1312     0.9215     0.7426 H       
  74 H74           12.3701     0.0049     1.6333 H       
  75 H75            8.0880    -0.5815     7.0516 H       
  76 H76            5.9755    -0.7593     0.3848 H       
  77 H77            7.2297    -1.8387     1.0406 H       
  78 H78            5.5227    -2.3423     1.0611 H       
  79 H79            4.5711    -0.9870     4.7526 H       
  80 H80            4.9603     0.7302     4.4919 H       
  81 H81            3.2825     0.1618     4.3188 H       
  82 H82            2.1761     1.1818     3.7077 H       
  83 H83            3.1590     2.6364     3.4136 H       
  84 H84            1.5003     2.5392     2.7754 H       
  85 H85           -1.2849     0.7921     1.6047 H       
  86 H86           -0.1432    -0.0074     2.7118 H       
  87 H87           -0.0134     1.7421     2.4104 H       
  88 H88            0.7421    -0.9136    -0.8442 H       
  89 H89            0.1030    -1.5811     0.6771 H       
  90 H90           -0.8994    -0.4860    -0.3048 H       
  91 H91           -3.1200     2.9342    -1.1654 H       
  92 H92           -1.8891     3.5784    -3.8985 H       
  93 H93           -3.5835     4.5269    -5.4620 H       
  94 H94           -5.8830     5.2497    -5.9478 H       
  95 H95           -7.6241     5.0762    -4.2189 H       
  96 H96           -7.0796     4.1783    -1.9945 H       
  97 H97           -4.7892     3.4419    -1.4865 H       
@<TRIPOS>BOND
   1    1    2 1
   2    1    6 1
   3    1   44 1
   4    1   45 1
   5    2    3 1
   6    2   33 1
   7    2   46 1
   8    3    4 1
   9    3   31 1
  10    3   32 1
  11    4    5 1
  12    4    7 1
  13    4   47 1
  14    5    6 1
  15    5   30 1
  16    5   10 1
  17    6   48 1
  18    6   49 1
  19    7    8 1
  20    7   50 1
  21    7   51 1
  22    8    9 1
  23    8   52 1
  24    8   53 1
  25    9   10 1
  26    9   11 1
  27    9   29 1
  28   10   14 1
  29   10   54 1
  30   11   12 1
  31   11   15 1
  32   11   28 1
  33   12   13 2
  34   12   18 1
  35   13   14 1
  36   13   55 1
  37   14   56 1
  38   14   57 1
  39   15   16 1
  40   15   58 1
  41   15   59 1
  42   16   17 1
  43   16   60 1
  44   16   61 1
  45   17   18 1
  46   17   19 1
  47   17   25 1
  48   18   22 1
  49   18   62 1
  50   19   20 1
  51   19   63 1
  52   19   64 1
  53   20   21 1
  54   20   65 1
  55   20   66 1
  56   21   22 1
  57   21   23 1
  58   21   24 1
  59   22   67 1
  60   22   68 1
  61   23   69 1
  62   23   70 1
  63   23   71 1
  64   24   72 1
  65   24   73 1
  66   24   74 1
  67   25   26 2
  68   25   27 1
  69   27   75 1
  70   28   76 1
  71   28   77 1
  72   28   78 1
  73   29   79 1
  74   29   80 1
  75   29   81 1
  76   30   82 1
  77   30   83 1
  78   30   84 1
  79   31   85 1
  80   31   86 1
  81   31   87 1
  82   32   88 1
  83   32   89 1
  84   32   90 1
  85   33   34 1
  86   34   35 1
  87   34   36 2
  88   35   37 2
  89   35   91 1
  90   37   38 1
  91   37   92 1
  92   38   39 ar
  93   38   43 ar
  94   39   40 ar
  95   39   93 1
  96   40   41 ar
  97   40   94 1
  98   41   42 ar
  99   41   95 1
 100   42   43 ar
 101   42   96 1
 102   43   97 1

#	End of record

