#	Name: ASD01850065
#	Creating user name:	WinNT
#	Creation time:	15. 06. 2019 19:38

#	Modifying user name:	WinNT
#	Modification time:	15. 06. 2019 19:38

#	Program:	/corina/corina34_cracker 3.40 0067  02.08.2006

@<TRIPOS>MOLECULE
ASD01850065
  60   63    0    0    0
SMALL
NO_CHARGES


@<TRIPOS>ATOM
   1 C1            -7.5865     4.6674    -0.6619 C.ar    
   2 C2            -8.1030     5.3996    -1.7207 C.ar    
   3 C3            -7.3472     5.5892    -2.8617 C.ar    
   4 C4            -6.0773     5.0499    -2.9486 C.ar    
   5 C5            -5.5603     4.3191    -1.8945 C.ar    
   6 C6            -6.3095     4.1320    -0.7493 C.ar    
   7 C7            -2.9942     4.6520     0.0553 C.3     
   8 N8            -3.2098     4.6557    -1.3937 N.am    
   9 C9            -3.8573     5.7372     0.7021 C.3     
  10 C10           -2.5191     5.5091    -2.1755 C.2     
  11 C11           -2.8221     5.5940    -3.6493 C.3     
  12 O12           -1.6539     6.2086    -1.6930 O.2     
  13 C13           -2.2898     6.9174    -4.2038 C.3     
  14 C14           -2.1496     4.4271    -4.3762 C.3     
  15 C15           -2.4881     4.4971    -5.8686 C.3     
  16 N16           -2.1108     5.8229    -6.3774 N.am    
  17 C17           -2.6299     7.0157    -5.6943 C.3     
  18 S18           -1.1191     5.9699    -7.6954 S.o2    
  19 C19           -2.1512     6.0103    -9.1228 C.ar    
  20 C20           -2.6138     7.2066    -9.5888 C.ar    
  21 C21           -3.4331     7.2375   -10.7229 C.ar    
  22 C22           -3.7714     6.0340   -11.3710 C.ar    
  23 C23           -3.2839     4.8282   -10.8725 C.ar    
  24 C24           -2.4818     4.8241    -9.7669 C.ar    
  25 C25           -4.0866     8.3050   -11.4732 C.2     
  26 N26           -4.7378     7.7571   -12.4592 N.2     
  27 N27           -4.5708     6.3686   -12.4325 N.pl3   
  28 O28           -0.5141     7.2523    -7.6012 O.2     
  29 O29           -0.3736     4.7627    -7.7733 O.2     
  30 C30           -4.1760     3.7318    -1.9930 C.3     
  31 O31           -8.3280     4.4794     0.4614 O.3     
  32 C32           -9.6316     5.0643     0.4837 C.3     
  33 H33           -9.0952     5.8208    -1.6535 H       
  34 H34           -7.7490     6.1590    -3.6865 H       
  35 H35           -5.4881     5.1992    -3.8413 H       
  36 H36           -5.9051     3.5615     0.0738 H       
  37 H37           -3.2699     3.6786     0.4612 H       
  38 H38           -1.9434     4.8494     0.2669 H       
  39 H39           -3.5226     6.7176     0.3632 H       
  40 H40           -4.8992     5.5905     0.4174 H       
  41 H41           -3.7650     5.6766     1.7865 H       
  42 H42           -3.9001     5.5438    -3.8020 H       
  43 H43           -2.7518     7.7477    -3.6697 H       
  44 H44           -1.2083     6.9575    -4.0740 H       
  45 H45           -1.0694     4.4907    -4.2448 H       
  46 H46           -2.5118     3.4850    -3.9648 H       
  47 H47           -1.9329     3.7281    -6.4056 H       
  48 H48           -3.5581     4.3431    -6.0082 H       
  49 H49           -3.7114     7.0669    -5.8196 H       
  50 H50           -2.1683     7.9083    -6.1163 H       
  51 H51           -2.3493     8.1245    -9.0849 H       
  52 H52           -3.5370     3.8988   -11.3610 H       
  53 H53           -2.1059     3.8867    -9.3841 H       
  54 H54           -4.0388     9.3607   -11.2507 H       
  55 H55           -4.9584     5.7430   -13.0643 H       
  56 H56           -4.1464     2.7803    -1.4620 H       
  57 H57           -3.9232     3.5710    -3.0410 H       
  58 H58          -10.1146     4.8392     1.4346 H       
  59 H59           -9.5472     6.1446     0.3659 H       
  60 H60          -10.2274     4.6553    -0.3323 H       
@<TRIPOS>BOND
   1    1   31 1
   2    1    2 ar
   3    1    6 ar
   4    2    3 ar
   5    2   33 1
   6    3    4 ar
   7    3   34 1
   8    4    5 ar
   9    4   35 1
  10    5    6 ar
  11    5   30 1
  12    6   36 1
  13    7    8 1
  14    7    9 1
  15    7   37 1
  16    7   38 1
  17    8   10 am
  18    8   30 1
  19    9   39 1
  20    9   40 1
  21    9   41 1
  22   10   11 1
  23   10   12 2
  24   11   13 1
  25   11   14 1
  26   11   42 1
  27   13   17 1
  28   13   43 1
  29   13   44 1
  30   14   15 1
  31   14   45 1
  32   14   46 1
  33   15   16 1
  34   15   47 1
  35   15   48 1
  36   16   17 1
  37   16   18 am
  38   17   49 1
  39   17   50 1
  40   18   19 1
  41   18   28 2
  42   18   29 2
  43   19   20 ar
  44   19   24 ar
  45   20   21 ar
  46   20   51 1
  47   21   22 ar
  48   21   25 1
  49   22   23 ar
  50   22   27 1
  51   23   24 ar
  52   23   52 1
  53   24   53 1
  54   25   26 2
  55   25   54 1
  56   26   27 1
  57   27   55 1
  58   30   56 1
  59   30   57 1
  60   31   32 1
  61   32   58 1
  62   32   59 1
  63   32   60 1

#	End of record

