#	Name: ASD01870208
#	Creating user name:	WinNT
#	Creation time:	15. 06. 2019 19:38

#	Modifying user name:	WinNT
#	Modification time:	15. 06. 2019 19:38

#	Program:	/corina/corina34_cracker 3.40 0067  02.08.2006

@<TRIPOS>MOLECULE
ASD01870208
  49   53    0    0    0
SMALL
NO_CHARGES


@<TRIPOS>ATOM
   1 C1            -0.0168     1.3890     0.0097 C.ar    
   2 C2             0.0021    -0.0041     0.0020 C.ar    
   3 C3             1.1787    -0.6895    -0.0124 C.ar    
   4 C4             2.3941     0.0134    -0.0202 C.ar    
   5 C5             2.3756     1.4326    -0.0129 C.ar    
   6 C6             1.1407     2.1050     0.0025 C.ar    
   7 C7             3.6272    -0.6638    -0.0356 C.ar    
   8 C8             4.7900     0.0349    -0.0429 C.ar    
   9 C9             4.7883     1.4437    -0.0359 C.ar    
  10 C10            3.5863     2.1337    -0.0212 C.ar    
  11 C11            5.8879     2.4282    -0.0421 C.2     
  12 N12            5.3953     3.6786    -0.0317 N.am    
  13 C13            3.9299     3.6020    -0.0179 C.3     
  14 C14            6.1525     4.8558    -0.0333 C.ar    
  15 C15            6.5173     5.4468    -1.2359 C.ar    
  16 C16            7.2641     6.6087    -1.2358 C.ar    
  17 C17            7.6504     7.1855    -0.0399 C.ar    
  18 C18            7.2901     6.6006     1.1623 C.ar    
  19 C19            6.5360     5.4388     1.1688 C.ar    
  20 C20            3.6564    -2.1705    -0.0434 C.3     
  21 C21            3.5286    -2.6681    -1.4601 C.ar    
  22 C22            4.6548    -2.8749    -2.2312 C.ar    
  23 N23            4.5539    -3.3103    -3.4728 N.ar    
  24 C24            3.3798    -3.5647    -4.0256 C.ar    
  25 C25            2.2046    -3.3792    -3.3084 C.ar    
  26 C26            2.2773    -2.9289    -2.0019 C.ar    
  27 O27            7.0708     2.1479    -0.0544 O.2     
  28 F28            6.1833     4.8673     2.3410 F       
  29 F29            7.6698     7.1659     2.3291 F       
  30 O30            3.3223    -4.0106    -5.3057 O.3     
  31 C31            4.5653    -4.1806    -5.9899 C.3     
  32 H32           -0.9637     1.9083     0.0170 H       
  33 H33           -0.9306    -0.5486     0.0080 H       
  34 H34            1.1770    -1.7695    -0.0175 H       
  35 H35            1.1108     3.1846     0.0078 H       
  36 H36            5.7302    -0.4964    -0.0540 H       
  37 H37            3.5209     4.0847    -0.9055 H       
  38 H38            3.5382     4.0767     0.8817 H       
  39 H39            6.2173     4.9977    -2.1712 H       
  40 H40            7.5473     7.0674    -2.1716 H       
  41 H41            8.2347     8.0938    -0.0436 H       
  42 H42            4.5988    -2.5179     0.3801 H       
  43 H43            2.8276    -2.5531     0.5523 H       
  44 H44            5.6309    -2.6774    -1.8131 H       
  45 H45            1.2474    -3.5875    -3.7629 H       
  46 H46            1.3806    -2.7758    -1.4198 H       
  47 H47            5.0884    -3.2254    -6.0357 H       
  48 H48            5.1786    -4.9053    -5.4545 H       
  49 H49            4.3771    -4.5406    -7.0014 H       
@<TRIPOS>BOND
   1    1    2 ar
   2    1    6 ar
   3    1   32 1
   4    2    3 ar
   5    2   33 1
   6    3    4 ar
   7    3   34 1
   8    4    5 ar
   9    4    7 ar
  10    5    6 ar
  11    5   10 ar
  12    6   35 1
  13    7    8 ar
  14    7   20 1
  15    8    9 ar
  16    8   36 1
  17    9   10 ar
  18    9   11 1
  19   10   13 1
  20   11   12 am
  21   11   27 2
  22   12   13 1
  23   12   14 1
  24   13   37 1
  25   13   38 1
  26   14   15 ar
  27   14   19 ar
  28   15   16 ar
  29   15   39 1
  30   16   17 ar
  31   16   40 1
  32   17   18 ar
  33   17   41 1
  34   18   19 ar
  35   18   29 1
  36   19   28 1
  37   20   21 1
  38   20   42 1
  39   20   43 1
  40   21   22 ar
  41   21   26 ar
  42   22   23 ar
  43   22   44 1
  44   23   24 ar
  45   24   25 ar
  46   24   30 1
  47   25   26 ar
  48   25   45 1
  49   26   46 1
  50   30   31 1
  51   31   47 1
  52   31   48 1
  53   31   49 1

#	End of record

