#	Name: ASD01911378
#	Creating user name:	WinNT
#	Creation time:	15. 06. 2019 19:57

#	Modifying user name:	WinNT
#	Modification time:	15. 06. 2019 19:57

#	Program:	/corina/corina34_cracker 3.40 0067  02.08.2006

@<TRIPOS>MOLECULE
ASD01911378
  47   50    0    0    0
SMALL
NO_CHARGES


@<TRIPOS>ATOM
   1 C1            -0.0173     1.4278     0.0099 C.ar    
   2 C2             0.0021    -0.0041     0.0020 C.1     
   3 C3             0.0180    -1.1779    -0.0044 C.1     
   4 C4             0.0374    -2.6098    -0.0123 C.ar    
   5 N5            -1.1126    -3.2811    -0.0049 N.ar    
   6 C6            -1.1402    -4.5954    -0.0112 C.ar    
   7 C7             0.0510    -5.3262    -0.0425 C.ar    
   8 C8             1.2772    -4.6524    -0.0437 C.ar    
   9 C9             1.2646    -3.2821    -0.0335 C.ar    
  10 C10           -2.4537    -5.3335     0.0370 C.3     
  11 C11           -2.3547    -6.6317    -0.7596 C.3     
  12 N12           -1.1812    -7.4045    -0.3586 N.am    
  13 C13           -0.0076    -6.7989    -0.0944 C.2     
  14 O14            0.9942    -7.4601     0.0995 O.2     
  15 C15           -1.2830    -8.8612    -0.2414 C.3     
  16 C16           -0.2938    -9.5207    -1.2045 C.3     
  17 C17           -0.4001   -11.0420    -1.0822 C.3     
  18 C18           -0.0729   -11.4625     0.3520 C.3     
  19 C19           -1.0621   -10.8031     1.3151 C.3     
  20 C20           -0.9558    -9.2817     1.1928 C.3     
  21 C21            1.1818     2.1463     0.0023 C.ar    
  22 C22            1.1557     3.5248     0.0095 C.ar    
  23 C23           -0.0549     4.1977     0.0246 C.ar    
  24 C24           -1.2469     3.4920     0.0322 C.ar    
  25 C25           -1.2356     2.1134     0.0194 C.ar    
  26 Cl26          -0.0785     5.9335     0.0347 Cl      
  27 H27            2.2093    -5.1979    -0.0563 H       
  28 H28            2.1913    -2.7274    -0.0335 H       
  29 H29           -2.7015    -5.5633     1.0733 H       
  30 H30           -3.2366    -4.7065    -0.3895 H       
  31 H31           -3.2513    -7.2270    -0.5869 H       
  32 H32           -2.2820    -6.3956    -1.8213 H       
  33 H33           -2.2966    -9.1757    -0.4900 H       
  34 H34           -0.5269    -9.2211    -2.2263 H       
  35 H35            0.7198    -9.2061    -0.9560 H       
  36 H36           -1.4137   -11.3566    -1.3307 H       
  37 H37            0.3046   -11.5118    -1.7683 H       
  38 H38           -0.1486   -12.5464     0.4392 H       
  39 H39            0.9407   -11.1480     0.6006 H       
  40 H40           -2.0757   -11.1176     1.0666 H       
  41 H41           -0.8290   -11.1026     2.3369 H       
  42 H42            0.0578    -8.9671     1.4413 H       
  43 H43           -1.6605    -8.8119     1.8789 H       
  44 H44            2.1264     1.6229    -0.0088 H       
  45 H45            2.0814     4.0811     0.0036 H       
  46 H46           -2.1873     4.0230     0.0444 H       
  47 H47           -2.1656     1.5645     0.0250 H       
@<TRIPOS>BOND
   1    1    2 1
   2    1   21 ar
   3    1   25 ar
   4    2    3 3
   5    3    4 1
   6    4    5 ar
   7    4    9 ar
   8    5    6 ar
   9    6    7 ar
  10    6   10 1
  11    7    8 ar
  12    7   13 1
  13    8    9 ar
  14    8   27 1
  15    9   28 1
  16   10   11 1
  17   10   29 1
  18   10   30 1
  19   11   12 1
  20   11   31 1
  21   11   32 1
  22   12   13 am
  23   12   15 1
  24   13   14 2
  25   15   16 1
  26   15   20 1
  27   15   33 1
  28   16   17 1
  29   16   34 1
  30   16   35 1
  31   17   18 1
  32   17   36 1
  33   17   37 1
  34   18   19 1
  35   18   38 1
  36   18   39 1
  37   19   20 1
  38   19   40 1
  39   19   41 1
  40   20   42 1
  41   20   43 1
  42   21   22 ar
  43   21   44 1
  44   22   23 ar
  45   22   45 1
  46   23   24 ar
  47   23   26 1
  48   24   25 ar
  49   24   46 1
  50   25   47 1

#	End of record

