#	Name: ASD01940638
#	Creating user name:	WinNT
#	Creation time:	15. 06. 2019 20:12

#	Modifying user name:	WinNT
#	Modification time:	15. 06. 2019 20:12

#	Program:	/corina/corina34_cracker 3.40 0067  02.08.2006

@<TRIPOS>MOLECULE
ASD01940638
  39   41    0    0    0
SMALL
NO_CHARGES


@<TRIPOS>ATOM
   1 I1            -4.3863    -2.2127    -5.9689 I       
   2 Cl2           -6.2463    -1.3374    -0.6369 Cl      
   3 F3            -3.3779    -4.8208     1.1067 F       
   4 F4            -1.0596    -5.7987     2.1688 F       
   5 O5            -0.2828     1.6823     0.1893 O.3     
   6 O6            -2.2799    -0.0606    -0.1272 O.2     
   7 N7            -0.2291     0.3371     0.6282 N.am    
   8 N8            -3.5372    -2.2022     0.2343 N.pl3   
   9 C9             0.7327     3.8622    -0.0498 C.3     
  10 C10            1.8518     4.8600     0.2548 C.3     
  11 C11            1.6688     4.3264    -1.1674 C.3     
  12 C12            0.9023     2.4315     0.4652 C.3     
  13 C13           -1.2828    -0.4793     0.4293 C.2     
  14 C14           -1.2269    -1.8788     0.8860 C.ar    
  15 C15           -2.3580    -2.7029     0.7753 C.ar    
  16 C16           -0.0452    -2.3949     1.4267 C.ar    
  17 C17           -2.2933    -4.0218     1.2096 C.ar    
  18 C18           -3.7271    -2.2044    -1.1508 C.ar    
  19 C19            0.0027    -3.7030     1.8522 C.ar    
  20 C20           -1.1183    -4.5163     1.7478 C.ar    
  21 C21           -4.9508    -1.8203    -1.6867 C.ar    
  22 C22           -2.6916    -2.5850    -1.9946 C.ar    
  23 C23           -5.1348    -1.8238    -3.0564 C.ar    
  24 C24           -2.8821    -2.5862    -3.3625 C.ar    
  25 C25           -4.1029    -2.2090    -3.8931 C.ar    
  26 H26           -0.2896     4.2403    -0.0602 H       
  27 H27            1.5658     5.8945     0.4448 H       
  28 H28            2.7089     4.4972     0.8221 H       
  29 H29            2.4056     3.6125    -1.5358 H       
  30 H30            1.2625     5.0098    -1.9130 H       
  31 H31            1.0776     2.4510     1.5408 H       
  32 H32            1.7518     1.9643    -0.0330 H       
  33 H33            0.5661     0.0032     1.0721 H       
  34 H34            0.8298    -1.7674     1.5101 H       
  35 H35           -4.2280    -1.8515     0.8180 H       
  36 H36            0.9168    -4.0990     2.2695 H       
  37 H37           -1.7381    -2.8793    -1.5815 H       
  38 H38           -6.0853    -1.5259    -3.4739 H       
  39 H39           -2.0770    -2.8818    -4.0188 H       
@<TRIPOS>BOND
   1    1   25 1
   2    2   21 1
   3    3   17 1
   4    4   20 1
   5    5    7 1
   6    5   12 1
   7    6   13 2
   8    7   13 am
   9    7   33 1
  10    8   15 1
  11    8   18 1
  12    8   35 1
  13    9   10 1
  14    9   11 1
  15    9   12 1
  16    9   26 1
  17   10   11 1
  18   10   27 1
  19   10   28 1
  20   11   29 1
  21   11   30 1
  22   12   31 1
  23   12   32 1
  24   13   14 1
  25   14   15 ar
  26   14   16 ar
  27   15   17 ar
  28   16   19 ar
  29   16   34 1
  30   17   20 ar
  31   18   21 ar
  32   18   22 ar
  33   19   20 ar
  34   19   36 1
  35   21   23 ar
  36   22   24 ar
  37   22   37 1
  38   23   25 ar
  39   23   38 1
  40   24   25 ar
  41   24   39 1

#	End of record

