#	Name: ASD08150184
#	Creating user name:	WinNT
#	Creation time:	15. 06. 2019 21:15

#	Modifying user name:	WinNT
#	Modification time:	15. 06. 2019 21:15

#	Program:	/corina/corina34_cracker 3.40 0067  02.08.2006

@<TRIPOS>MOLECULE
ASD08150184
  87   92    0    0    0
SMALL
NO_CHARGES


@<TRIPOS>ATOM
   1 O1            -2.2379    -3.3503     0.0401 O.3     
   2 C2            -1.3757    -4.3579     0.2456 C.2     
   3 N3            -0.0692    -4.1684     0.4593 N.am    
   4 C4             0.5557    -2.8484     0.4413 C.3     
   5 C5            -0.5087    -1.7647     0.6351 C.3     
   6 C6            -1.6760    -2.0574    -0.3174 C.3     
   7 O7            -1.8021    -5.4955     0.2376 O.2     
   8 C8             1.5845    -2.7578     1.5702 C.3     
   9 O9             2.6628    -3.6573     1.3053 O.3     
  10 Si10           3.8916    -2.9906     0.4652 Si      
  11 C11            4.9567    -4.3434    -0.2592 C.ar    
  12 C12            5.1675    -4.4009    -1.6242 C.ar    
  13 C13            5.9557    -5.4020    -2.1604 C.ar    
  14 C14            6.5334    -6.3454    -1.3315 C.ar    
  15 C15            6.3234    -6.2875     0.0336 C.ar    
  16 C16            5.5387    -5.2838     0.5702 C.ar    
  17 C17            3.2029    -1.9348    -0.9133 C.ar    
  18 C18            2.8072    -2.5209    -2.1011 C.ar    
  19 C19            2.2976    -1.7396    -3.1212 C.ar    
  20 C20            2.1832    -0.3723    -2.9535 C.ar    
  21 C21            2.5780     0.2137    -1.7654 C.ar    
  22 C22            3.0837    -0.5681    -0.7436 C.ar    
  23 C23            4.9199    -1.9329     1.6030 C.3     
  24 C24            5.7390    -2.8307     2.5325 C.3     
  25 C25            5.8645    -1.0607     0.7736 C.3     
  26 C26            4.0007    -1.0385     2.4374 C.3     
  27 C27            1.7097    -6.7376     2.2077 C.ar    
  28 N28            2.2801    -7.4312     1.2352 N.ar    
  29 C29            2.1064    -7.0866    -0.0408 C.ar    
  30 C30            1.3122    -5.9807    -0.3414 C.ar    
  31 C31            0.7303    -5.2783     0.7105 C.ar    
  32 N32            0.9493    -5.6820     1.9582 N.ar    
  33 C33            3.9098    -9.2809    -3.0847 C.ar    
  34 N34            4.1018    -9.6482    -1.8252 N.ar    
  35 C35            3.5470    -8.9777    -0.8318 C.ar    
  36 C36            2.7487    -7.8677    -1.1245 C.ar    
  37 C37            2.5714    -7.5135    -2.4650 C.ar    
  38 N38            3.1601    -8.2348    -3.4021 N.ar    
  39 C39            3.7707    -9.4032     0.5965 C.3     
  40 F40            4.6876   -10.4593     0.6303 F       
  41 F41            4.2746    -8.3244     1.3310 F       
  42 F42            2.5575    -9.8209     1.1540 F       
  43 N43            1.9084    -7.1293     3.5202 N.3     
  44 C44            2.6191    -8.4146     3.5846 C.3     
  45 C45            2.8702    -8.7800     5.0500 C.3     
  46 O46            1.6223    -8.8157     5.7477 O.3     
  47 C47            0.9037    -7.5799     5.7059 C.3     
  48 C48            0.6327    -7.2024     4.2471 C.3     
  49 N49            4.5131   -10.0060    -4.0950 N.pl3   
  50 H50            1.0558    -2.6977    -0.5154 H       
  51 H51           -0.8637    -1.7788     1.6656 H       
  52 H52           -0.0838    -0.7875     0.4058 H       
  53 H53           -1.3144    -2.0848    -1.3453 H       
  54 H54           -2.4374    -1.2841    -0.2149 H       
  55 H55            1.9677    -1.7392     1.6316 H       
  56 H56            1.1116    -3.0257     2.5150 H       
  57 H57            4.7162    -3.6638    -2.2718 H       
  58 H58            6.1198    -5.4473    -3.2269 H       
  59 H59            7.1486    -7.1280    -1.7504 H       
  60 H60            6.7744    -7.0247     0.6812 H       
  61 H61            5.3776    -5.2363     1.6370 H       
  62 H62            2.8966    -3.5892    -2.2322 H       
  63 H63            1.9891    -2.1975    -4.0495 H       
  64 H64            1.7857     0.2382    -3.7508 H       
  65 H65            2.4890     1.2820    -1.6344 H       
  66 H66            3.3887    -0.1108     0.1860 H       
  67 H67            6.4598    -3.3999     1.9456 H       
  68 H68            6.2681    -2.2146     3.2595 H       
  69 H69            5.0726    -3.5173     3.0546 H       
  70 H70            5.2822    -0.3481     0.1895 H       
  71 H71            6.5383    -0.5206     1.4387 H       
  72 H72            6.4460    -1.6920     0.1018 H       
  73 H73            3.2712    -1.6558     2.9616 H       
  74 H74            4.5950    -0.4832     3.1630 H       
  75 H75            3.4812    -0.3395     1.7820 H       
  76 H76            1.1526    -5.6762    -1.3652 H       
  77 H77            1.9622    -6.6623    -2.7308 H       
  78 H78            2.0132    -9.1895     3.1149 H       
  79 H79            3.5720    -8.3302     3.0621 H       
  80 H80            3.3459    -9.7592     5.1046 H       
  81 H81            3.5203    -8.0328     5.5051 H       
  82 H82           -0.0428    -7.6912     6.2349 H       
  83 H83            1.4967    -6.7979     6.1801 H       
  84 H84            0.1356    -6.2332     4.2083 H       
  85 H85           -0.0050    -7.9579     3.7881 H       
  86 H86            5.0677   -10.7716    -3.8778 H       
  87 H87            4.3818    -9.7493    -5.0211 H       
@<TRIPOS>BOND
   1    1    2 1
   2    1    6 1
   3    2    3 am
   4    2    7 2
   5    3    4 1
   6    3   31 1
   7    4    5 1
   8    4    8 1
   9    4   50 1
  10    5    6 1
  11    5   51 1
  12    5   52 1
  13    6   53 1
  14    6   54 1
  15    8    9 1
  16    8   55 1
  17    8   56 1
  18    9   10 1
  19   10   11 1
  20   10   17 1
  21   10   23 1
  22   11   12 ar
  23   11   16 ar
  24   12   13 ar
  25   12   57 1
  26   13   14 ar
  27   13   58 1
  28   14   15 ar
  29   14   59 1
  30   15   16 ar
  31   15   60 1
  32   16   61 1
  33   17   18 ar
  34   17   22 ar
  35   18   19 ar
  36   18   62 1
  37   19   20 ar
  38   19   63 1
  39   20   21 ar
  40   20   64 1
  41   21   22 ar
  42   21   65 1
  43   22   66 1
  44   23   24 1
  45   23   26 1
  46   23   25 1
  47   24   67 1
  48   24   68 1
  49   24   69 1
  50   25   70 1
  51   25   71 1
  52   25   72 1
  53   26   73 1
  54   26   74 1
  55   26   75 1
  56   27   28 ar
  57   27   32 ar
  58   27   43 1
  59   28   29 ar
  60   29   30 ar
  61   29   36 1
  62   30   31 ar
  63   30   76 1
  64   31   32 ar
  65   33   34 ar
  66   33   38 ar
  67   33   49 1
  68   34   35 ar
  69   35   36 ar
  70   35   39 1
  71   36   37 ar
  72   37   38 ar
  73   37   77 1
  74   39   40 1
  75   39   41 1
  76   39   42 1
  77   43   44 1
  78   43   48 1
  79   44   45 1
  80   44   78 1
  81   44   79 1
  82   45   46 1
  83   45   80 1
  84   45   81 1
  85   46   47 1
  86   47   48 1
  87   47   82 1
  88   47   83 1
  89   48   84 1
  90   48   85 1
  91   49   86 1
  92   49   87 1

#	End of record

