#	Name: ASD01840278
#	Creating user name:	WinNT
#	Creation time:	15. 06. 2019 19:37

#	Modifying user name:	WinNT
#	Modification time:	15. 06. 2019 19:37

#	Program:	/corina/corina34_cracker 3.40 0067  02.08.2006

@<TRIPOS>MOLECULE
ASD01840278
  47   50    0    0    0
SMALL
NO_CHARGES


@<TRIPOS>ATOM
   1 C1            -2.0174     2.7061    -0.4190 C.3     
   2 O2            -1.5209     1.3662    -0.4257 O.3     
   3 C3            -0.8397     0.9662    -1.5316 C.ar    
   4 C4            -0.6480     1.8471    -2.5860 C.ar    
   5 C5             0.0452     1.4383    -3.7088 C.ar    
   6 C6             0.5474     0.1521    -3.7825 C.ar    
   7 C7             0.3573    -0.7279    -2.7331 C.ar    
   8 C8            -0.3299    -0.3220    -1.6055 C.ar    
   9 C9             1.3028    -0.2914    -5.0087 C.3     
  10 C10            2.0059    -1.6491    -4.9527 C.3     
  11 C11            0.7400    -1.4774    -5.7946 C.3     
  12 N12           -0.4920    -2.0949    -5.2975 N.am    
  13 C13           -1.3010    -2.7616    -6.1445 C.2     
  14 O14           -1.0082    -2.8506    -7.3216 O.2     
  15 C15           -2.5386    -3.3819    -5.6451 C.2     
  16 S16           -3.0812    -3.3224    -3.9770 S.3     
  17 C17           -4.5186    -4.2625    -4.3572 C.ar    
  18 N18           -5.5219    -4.6816    -3.5861 N.ar    
  19 N19           -6.4983    -5.3681    -4.0529 N.ar    
  20 C20           -6.5835    -5.7102    -5.3272 C.ar    
  21 C21           -7.7612    -6.5190    -5.8069 C.3     
  22 C22           -5.6126    -5.3360    -6.2127 C.ar    
  23 C23           -5.7012    -5.7202    -7.6672 C.3     
  24 C24           -4.5205    -4.5768    -5.7256 C.ar    
  25 C25           -3.4061    -4.0631    -6.4015 C.2     
  26 C26           -3.1965    -4.2683    -7.8797 C.3     
  27 H27           -1.1848     3.4026    -0.5179 H       
  28 H28           -2.7063     2.8426    -1.2526 H       
  29 H29           -2.5398     2.8953     0.5188 H       
  30 H30           -1.0407     2.8516    -2.5293 H       
  31 H31            0.1947     2.1237    -4.5299 H       
  32 H32            0.7502    -1.7321    -2.7931 H       
  33 H33           -0.4743    -1.0083    -0.7843 H       
  34 H34            1.7872     0.5036    -5.5756 H       
  35 H35            2.9533    -1.7475    -5.4826 H       
  36 H36            1.9221    -2.2215    -4.0289 H       
  37 H37            0.8546    -1.4628    -6.8785 H       
  38 H38           -0.7255    -2.0239    -4.3587 H       
  39 H39           -8.5598    -5.8469    -6.1210 H       
  40 H40           -7.4565    -7.1399    -6.6494 H       
  41 H41           -8.1190    -7.1551    -4.9973 H       
  42 H42           -6.1393    -4.8986    -8.2340 H       
  43 H43           -4.7024    -5.9326    -8.0484 H       
  44 H44           -6.3260    -6.6072    -7.7713 H       
  45 H45           -2.6988    -5.2234    -8.0469 H       
  46 H46           -4.1613    -4.2676    -8.3869 H       
  47 H47           -2.5780    -3.4622    -8.2743 H       
@<TRIPOS>BOND
   1    1    2 1
   2    1   27 1
   3    1   28 1
   4    1   29 1
   5    2    3 1
   6    3    8 ar
   7    3    4 ar
   8    4    5 ar
   9    4   30 1
  10    5    6 ar
  11    5   31 1
  12    6    7 ar
  13    6    9 1
  14    7    8 ar
  15    7   32 1
  16    8   33 1
  17    9   11 1
  18    9   10 1
  19    9   34 1
  20   10   11 1
  21   10   35 1
  22   10   36 1
  23   11   12 1
  24   11   37 1
  25   12   13 am
  26   12   38 1
  27   13   14 2
  28   13   15 1
  29   15   25 2
  30   15   16 1
  31   16   17 1
  32   17   24 ar
  33   17   18 ar
  34   18   19 ar
  35   19   20 ar
  36   20   21 1
  37   20   22 ar
  38   21   39 1
  39   21   40 1
  40   21   41 1
  41   22   23 1
  42   22   24 ar
  43   23   42 1
  44   23   43 1
  45   23   44 1
  46   24   25 1
  47   25   26 1
  48   26   45 1
  49   26   46 1
  50   26   47 1

#	End of record

