#	Name: ASD02560029
#	Creating user name:	WinNT
#	Creation time:	15. 06. 2019 20:24

#	Modifying user name:	WinNT
#	Modification time:	15. 06. 2019 20:24

#	Program:	/corina/corina34_cracker 3.40 0067  02.08.2006

@<TRIPOS>MOLECULE
ASD02560029
  33   35    0    0    0
SMALL
NO_CHARGES


@<TRIPOS>ATOM
   1 C1            -0.1530     1.2648     1.0679 C.ar    
   2 C2            -0.0739    -0.0692     0.6857 C.ar    
   3 C3            -1.1812    -0.7259     0.1969 C.ar    
   4 C4            -2.3926    -0.0501     0.0832 C.ar    
   5 C5            -2.4707     1.3020     0.4710 C.ar    
   6 C6            -1.3320     1.9470     0.9702 C.ar    
   7 N7            -3.6408    -0.4239    -0.3572 N.pl3   
   8 C8            -4.4919     0.6593    -0.2534 C.2     
   9 C9            -3.8050     1.7194     0.2470 C.2     
  10 Cl10           1.2579     2.0689     1.6815 Cl      
  11 S11           -4.4577     3.3257     0.5609 S.o2    
  12 C12           -4.5386     4.1670    -0.9851 C.ar    
  13 O13           -5.8005     3.1371     0.9859 O.2     
  14 O14           -3.4848     4.0090     1.3392 O.2     
  15 C15           -5.6795     4.0795    -1.7608 C.ar    
  16 C16           -5.7429     4.7395    -2.9737 C.ar    
  17 C17           -4.6657     5.4875    -3.4108 C.ar    
  18 C18           -3.5252     5.5758    -2.6347 C.ar    
  19 C19           -3.4634     4.9193    -1.4197 C.ar    
  20 C20           -5.9145     0.6642    -0.6256 C.2     
  21 N21           -6.5156    -0.4806    -1.0058 N.am    
  22 O22           -6.5489     1.7016    -0.5904 O.2     
  23 H23            0.8650    -0.5957     0.7727 H       
  24 H24           -1.1097    -1.7624    -0.0978 H       
  25 H25           -1.3842     2.9834     1.2695 H       
  26 H26           -3.8834    -1.3033    -0.6868 H       
  27 H27           -6.5211     3.4951    -1.4194 H       
  28 H28           -6.6340     4.6705    -3.5801 H       
  29 H29           -4.7150     6.0026    -4.3587 H       
  30 H30           -2.6834     6.1599    -2.9763 H       
  31 H31           -2.5723     4.9883    -0.8134 H       
  32 H32           -6.0099    -1.3078    -1.0338 H       
  33 H33           -7.4541    -0.4773    -1.2513 H       
@<TRIPOS>BOND
   1    1    2 ar
   2    1   10 1
   3    1    6 ar
   4    2    3 ar
   5    2   23 1
   6    3    4 ar
   7    3   24 1
   8    4    5 ar
   9    4    7 1
  10    5    6 ar
  11    5    9 1
  12    6   25 1
  13    7    8 1
  14    7   26 1
  15    8    9 2
  16    8   20 1
  17    9   11 1
  18   11   12 1
  19   11   13 2
  20   11   14 2
  21   12   15 ar
  22   12   19 ar
  23   15   16 ar
  24   15   27 1
  25   16   17 ar
  26   16   28 1
  27   17   18 ar
  28   17   29 1
  29   18   19 ar
  30   18   30 1
  31   19   31 1
  32   20   21 am
  33   20   22 2
  34   21   32 1
  35   21   33 1

#	End of record

