#	Name: ASD09720007
#	Creating user name:	WinNT
#	Creation time:	15. 06. 2019 21:22

#	Modifying user name:	WinNT
#	Modification time:	15. 06. 2019 21:22

#	Program:	/corina/corina34_cracker 3.40 0067  02.08.2006

@<TRIPOS>MOLECULE
ASD09720007
  29   29    0    0    0
SMALL
NO_CHARGES


@<TRIPOS>ATOM
   1 C1            -0.2511     0.3312     0.8694 C.2     
   2 S2             0.1834     1.1168    -0.6387 S.3     
   3 C3            -1.4300     1.5667    -0.9541 C.2     
   4 C4            -2.2543     1.1398     0.0386 C.2     
   5 C5            -1.5601     0.4231     1.0830 C.2     
   6 Cl6            0.8709    -0.4619     1.9305 Cl      
   7 Cl7           -1.9502     2.4514    -2.3542 Cl      
   8 C8            -3.7074     1.3798     0.0464 C.2     
   9 N9            -4.5290     0.3828    -0.0486 N.2     
  10 C10           -4.2383     2.7851     0.1650 C.3     
  11 O11           -4.0331    -0.9244    -0.2734 O.3     
  12 S12           -6.0519     2.7500     0.1455 S.3     
  13 C13           -6.4956     4.5024     0.2954 C.3     
  14 C14           -5.9098     5.2797    -0.8851 C.3     
  15 C15           -8.0190     4.6447     0.2940 C.3     
  16 C16           -5.9324     5.0610     1.6036 C.3     
  17 H17           -2.0525     0.0106     1.9512 H       
  18 H18           -3.8936     3.2260     1.1003 H       
  19 H19           -3.8774     3.3818    -0.6727 H       
  20 H20           -4.7210    -1.6017    -0.3297 H       
  21 H21           -6.3110     4.8817    -1.8172 H       
  22 H22           -6.1764     6.3327    -0.7951 H       
  23 H23           -4.8245     5.1783    -0.8842 H       
  24 H24           -8.4364     4.0910     1.1350 H       
  25 H25           -8.2857     5.6978     0.3841 H       
  26 H26           -8.4203     4.2467    -0.6381 H       
  27 H27           -4.8471     4.9597     1.6046 H       
  28 H28           -6.1991     6.1141     1.6937 H       
  29 H29           -6.3498     4.5073     2.4447 H       
@<TRIPOS>BOND
   1    1    2 1
   2    1    6 1
   3    1    5 2
   4    2    3 1
   5    3    4 2
   6    3    7 1
   7    4    5 1
   8    4    8 1
   9    5   17 1
  10    8    9 2
  11    8   10 1
  12    9   11 1
  13   10   12 1
  14   10   18 1
  15   10   19 1
  16   11   20 1
  17   12   13 1
  18   13   14 1
  19   13   15 1
  20   13   16 1
  21   14   21 1
  22   14   22 1
  23   14   23 1
  24   15   24 1
  25   15   25 1
  26   15   26 1
  27   16   27 1
  28   16   28 1
  29   16   29 1

#	End of record

