#	Name: ASD01913607
#	Creating user name:	WinNT
#	Creation time:	15. 06. 2019 20:01

#	Modifying user name:	WinNT
#	Modification time:	15. 06. 2019 20:01

#	Program:	/corina/corina34_cracker 3.40 0067  02.08.2006

@<TRIPOS>MOLECULE
ASD01913607
  37   39    0    0    0
SMALL
NO_CHARGES


@<TRIPOS>ATOM
   1 C1            -2.8101     0.2911    -1.2453 C.ar    
   2 C2            -2.3034    -0.1541    -0.0287 C.ar    
   3 C3            -3.0963    -0.0158     1.1060 C.ar    
   4 N4            -4.2954     0.5303     0.9885 N.ar    
   5 C5            -4.7403     0.9400    -0.1824 C.ar    
   6 N6            -4.0194     0.8264    -1.2798 N.ar    
   7 C7            -0.9788    -2.0623     0.1334 C.ar    
   8 C8             0.2594    -2.6940     0.2076 C.ar    
   9 C9             0.3110    -4.0735     0.2981 C.ar    
  10 N10           -0.7907    -4.7928     0.3149 N.ar    
  11 C11           -1.9933    -4.2325     0.2463 C.ar    
  12 C12           -2.1266    -2.8512     0.1535 C.ar    
  13 C13           -3.2033    -5.0867     0.2685 C.2     
  14 N14           -3.0812    -6.4260     0.3578 N.am    
  15 O15           -1.0657    -0.7103     0.0493 O.3     
  16 O16           -4.3060    -4.5800     0.2060 O.2     
  17 C17           -4.2173    -7.2220     0.4847 C.ar    
  18 C18           -4.0795    -8.5883     0.6935 C.ar    
  19 C19           -5.2155    -9.3716     0.8184 C.ar    
  20 C20           -6.4552    -8.7593     0.7300 C.ar    
  21 C21           -6.5216    -7.3885     0.5202 C.ar    
  22 N22           -5.4180    -6.6675     0.4105 N.ar    
  23 O23           -7.7315    -6.7810     0.4324 O.3     
  24 C24           -7.7340    -5.3685     0.2160 C.3     
  25 H25           -2.2231     0.2051    -2.1478 H       
  26 H26           -2.7382    -0.3497     2.0686 H       
  27 H27           -5.7239     1.3817    -0.2445 H       
  28 H28            1.1700    -2.1134     0.1942 H       
  29 H29            1.2698    -4.5675     0.3554 H       
  30 H30           -3.1050    -2.3972     0.0982 H       
  31 H31           -2.2022    -6.8355     0.3338 H       
  32 H32           -3.0982    -9.0350     0.7573 H       
  33 H33           -5.1364   -10.4364     0.9809 H       
  34 H34           -7.3598    -9.3419     0.8228 H       
  35 H35           -7.2170    -4.8740     1.0383 H       
  36 H36           -7.2246    -5.1436    -0.7211 H       
  37 H37           -8.7623    -5.0104     0.1656 H       
@<TRIPOS>BOND
   1    1    2 ar
   2    1    6 ar
   3    1   25 1
   4    2    3 ar
   5    2   15 1
   6    3    4 ar
   7    3   26 1
   8    4    5 ar
   9    5    6 ar
  10    5   27 1
  11    7    8 ar
  12    7   12 ar
  13    7   15 1
  14    8    9 ar
  15    8   28 1
  16    9   10 ar
  17    9   29 1
  18   10   11 ar
  19   11   12 ar
  20   11   13 1
  21   12   30 1
  22   13   14 am
  23   13   16 2
  24   14   17 1
  25   14   31 1
  26   17   18 ar
  27   17   22 ar
  28   18   19 ar
  29   18   32 1
  30   19   20 ar
  31   19   33 1
  32   20   21 ar
  33   20   34 1
  34   21   22 ar
  35   21   23 1
  36   23   24 1
  37   24   35 1
  38   24   36 1
  39   24   37 1

#	End of record

