#	Name: ASD04930004
#	Creating user name:	WinNT
#	Creation time:	15. 06. 2019 20:56

#	Modifying user name:	WinNT
#	Modification time:	15. 06. 2019 20:56

#	Program:	/corina/corina34_cracker 3.40 0067  02.08.2006

@<TRIPOS>MOLECULE
ASD04930004
  54   55    0    0    0
SMALL
NO_CHARGES


@<TRIPOS>ATOM
   1 C1             1.2566    -0.9242     2.2161 C.ar    
   2 C2             0.5856    -1.0603     1.0092 C.ar    
   3 C3             1.1207    -0.5501    -0.1539 C.ar    
   4 C4             2.3464     0.1093    -0.1230 C.ar    
   5 C5             3.0229     0.2448     1.1026 C.ar    
   6 C6             2.4607    -0.2811     2.2711 C.ar    
   7 N7             2.8888     0.6223    -1.2833 N.am    
   8 C8             4.0695     1.2640    -1.2880 C.2     
   9 C9             4.8311     1.4440    -0.0528 C.2     
  10 C10            4.3145     0.9383     1.1424 C.2     
  11 O11            4.9866     1.0838     2.3034 O.3     
  12 O12            4.5115     1.7013    -2.3356 O.2     
  13 C13            6.1204     2.1461    -0.0687 C.2     
  14 N14            7.2697     1.4465     0.0097 N.am    
  15 O15            6.1512     3.3596    -0.1526 O.2     
  16 N16            8.5002     2.1046    -0.1154 N.am    
  17 C17            9.6495     1.4050    -0.0370 C.2     
  18 C18           10.9731     2.1129    -0.1716 C.3     
  19 O19            9.6185     0.2059     0.1418 O.2     
  20 C20           12.1100     1.0967    -0.0459 C.3     
  21 C21           13.4538     1.8153    -0.1826 C.3     
  22 C22           14.5907     0.7992    -0.0569 C.3     
  23 C23           15.9345     1.5178    -0.1935 C.3     
  24 C24           17.0713     0.5016    -0.0678 C.3     
  25 C25           18.4151     1.2203    -0.2044 C.3     
  26 C26            1.2251     1.6580    -2.7465 C.3     
  27 C27            2.1586     0.4629    -2.5433 C.3     
  28 H28            0.8217    -1.3257     3.1195 H       
  29 H29           -0.3654    -1.5715     0.9809 H       
  30 H30            0.5902    -0.6619    -1.0880 H       
  31 H31            2.9772    -0.1785     3.2141 H       
  32 H32            5.8610     1.4846     2.2041 H       
  33 H33            7.2449     0.4875     0.1527 H       
  34 H34            8.5249     3.0637    -0.2585 H       
  35 H35           11.0273     2.6001    -1.1452 H       
  36 H36           11.0664     2.8616     0.6150 H       
  37 H37           12.0558     0.6095     0.9276 H       
  38 H38           12.0167     0.3480    -0.8326 H       
  39 H39           13.5079     2.3025    -1.1561 H       
  40 H40           13.5471     2.5640     0.6041 H       
  41 H41           14.5365     0.3120     0.9167 H       
  42 H42           14.4974     0.0504    -0.8435 H       
  43 H43           15.9886     2.0050    -1.1670 H       
  44 H44           16.0277     2.2665     0.5932 H       
  45 H45           17.0172     0.0144     0.9058 H       
  46 H46           16.9781    -0.2471    -0.8544 H       
  47 H47           18.4693     1.7074    -1.1780 H       
  48 H48           18.5084     1.9690     0.5822 H       
  49 H49           19.2251     0.4963    -0.1149 H       
  50 H50            0.6818     1.5394    -3.6839 H       
  51 H51            0.5165     1.7102    -1.9199 H       
  52 H52            1.8121     2.5759    -2.7803 H       
  53 H53            2.8672     0.4108    -3.3699 H       
  54 H54            1.5716    -0.4549    -2.5095 H       
@<TRIPOS>BOND
   1    1    2 ar
   2    1    6 ar
   3    1   28 1
   4    2    3 ar
   5    2   29 1
   6    3    4 ar
   7    3   30 1
   8    4    5 ar
   9    4    7 1
  10    5    6 ar
  11    5   10 1
  12    6   31 1
  13    7    8 am
  14    7   27 1
  15    8    9 1
  16    8   12 2
  17    9   10 2
  18    9   13 1
  19   10   11 1
  20   11   32 1
  21   13   14 am
  22   13   15 2
  23   14   16 1
  24   14   33 1
  25   16   17 am
  26   16   34 1
  27   17   18 1
  28   17   19 2
  29   18   20 1
  30   18   35 1
  31   18   36 1
  32   20   21 1
  33   20   37 1
  34   20   38 1
  35   21   22 1
  36   21   39 1
  37   21   40 1
  38   22   23 1
  39   22   41 1
  40   22   42 1
  41   23   24 1
  42   23   43 1
  43   23   44 1
  44   24   25 1
  45   24   45 1
  46   24   46 1
  47   25   47 1
  48   25   48 1
  49   25   49 1
  50   26   27 1
  51   26   50 1
  52   26   51 1
  53   26   52 1
  54   27   53 1
  55   27   54 1

#	End of record

