#	Name: ASD05213009
#	Creating user name:	WinNT
#	Creation time:	15. 06. 2019 20:57

#	Modifying user name:	WinNT
#	Modification time:	15. 06. 2019 20:57

#	Program:	/corina/corina34_cracker 3.40 0067  02.08.2006

@<TRIPOS>MOLECULE
ASD05213009
  36   37    0    0    0
SMALL
NO_CHARGES


@<TRIPOS>ATOM
   1 C1            -0.0184     1.5028     0.0103 C.ar    
   2 C2             0.0021    -0.0041     0.0020 C.3     
   3 C3            -0.1284    -0.5004    -1.4149 C.2     
   4 N4            -0.1343    -1.8243    -1.6673 N.am    
   5 C5            -0.2544    -2.2811    -2.9710 C.2     
   6 S6            -0.4008    -1.2766    -4.3403 S.3     
   7 C7            -0.4872    -2.6470    -5.4327 C.2     
   8 C8            -0.4066    -3.7883    -4.7636 C.2     
   9 C9            -0.2657    -3.6022    -3.3362 C.2     
  10 C10           -0.1563    -4.7090    -2.3807 C.2     
  11 O11           -0.0394    -4.4771    -1.1916 O.2     
  12 N12           -0.1851    -5.9831    -2.8191 N.am    
  13 O13           -0.2282     0.2914    -2.3281 O.2     
  14 C14            1.1691     2.2101     0.0028 C.ar    
  15 C15            1.1503     3.5925     0.0104 C.ar    
  16 C16           -0.0559     4.2672     0.0251 C.ar    
  17 C17           -1.2437     3.5597     0.0318 C.ar    
  18 C18           -1.2250     2.1777     0.0197 C.ar    
  19 C19            2.4450     4.3636     0.0032 C.3     
  20 C20           -2.5197     1.4065     0.0269 C.3     
  21 H21            0.9424    -0.3570     0.4255 H       
  22 H22           -0.8291    -0.3820     0.5974 H       
  23 H23           -0.0545    -2.4577    -0.9369 H       
  24 H24           -0.5925    -2.5708    -6.5048 H       
  25 H25           -0.4390    -4.7586    -5.2367 H       
  26 H26           -0.2782    -6.1679    -3.7668 H       
  27 H27           -0.1127    -6.7153    -2.1870 H       
  28 H28            2.1116     1.6828    -0.0087 H       
  29 H29           -0.0705     5.3471     0.0318 H       
  30 H30           -2.1862     4.0869     0.0436 H       
  31 H31            2.7481     4.5551    -1.0262 H       
  32 H32            2.3063     5.3114     0.5234 H       
  33 H33            3.2171     3.7822     0.5071 H       
  34 H34           -2.8428     1.2294    -0.9989 H       
  35 H35           -2.3710     0.4516     0.5310 H       
  36 H36           -3.2817     1.9808     0.5538 H       
@<TRIPOS>BOND
   1    1    2 1
   2    1   14 ar
   3    1   18 ar
   4    2    3 1
   5    2   21 1
   6    2   22 1
   7    3    4 am
   8    3   13 2
   9    4    5 1
  10    4   23 1
  11    5    6 1
  12    5    9 2
  13    6    7 1
  14    7    8 2
  15    7   24 1
  16    8    9 1
  17    8   25 1
  18    9   10 1
  19   10   11 2
  20   10   12 am
  21   12   26 1
  22   12   27 1
  23   14   15 ar
  24   14   28 1
  25   15   16 ar
  26   15   19 1
  27   16   17 ar
  28   16   29 1
  29   17   18 ar
  30   17   30 1
  31   18   20 1
  32   19   31 1
  33   19   32 1
  34   19   33 1
  35   20   34 1
  36   20   35 1
  37   20   36 1

#	End of record

