#	Name: ASD01000012
#	Creating user name:	WinNT
#	Creation time:	15. 06. 2019 18:54

#	Modifying user name:	WinNT
#	Modification time:	15. 06. 2019 18:54

#	Program:	/corina/corina34_cracker 3.40 0067  02.08.2006

@<TRIPOS>MOLECULE
ASD01000012
  35   37    0    0    0
SMALL
NO_CHARGES


@<TRIPOS>ATOM
   1 C1             0.0701     1.2186     0.2597 C.ar    
   2 C2             0.0300    -0.1541     0.0539 C.ar    
   3 C3            -1.1842    -0.8065    -0.0211 C.ar    
   4 C4            -2.3665    -0.0892     0.1096 C.ar    
   5 C5            -2.3263     1.2842     0.3155 C.ar    
   6 C6            -1.1117     1.9350     0.3955 C.ar    
   7 N7             1.3038     1.8773     0.3357 N.am    
   8 C8             2.4178     1.2958    -0.1454 C.2     
   9 C9             2.3598    -0.0626    -0.7906 C.3     
  10 C10            1.3146    -0.9289    -0.0866 C.3     
  11 O11            3.4809     1.8733    -0.0585 O.2     
  12 N12           -3.5976    -0.7496     0.0335 N.pl3   
  13 C13           -4.6979    -0.2598     0.7410 C.ar    
  14 C14           -5.9832    -0.4540     0.2511 C.ar    
  15 C15           -4.5096     0.4180     1.9394 C.ar    
  16 C16           -5.5995     0.9009     2.6362 C.ar    
  17 C17           -6.8775     0.7103     2.1428 C.ar    
  18 C18           -7.0689     0.0317     0.9533 C.ar    
  19 C19           -5.3963     1.6360     3.9359 C.3     
  20 F20           -5.2490     3.0035     3.6801 F       
  21 F21           -6.5052     1.4334     4.7645 F       
  22 F22           -4.2462     1.1536     4.5697 F       
  23 H23           -1.2149    -1.8740    -0.1816 H       
  24 H24           -3.2455     1.8420     0.4168 H       
  25 H25           -1.0807     3.0027     0.5554 H       
  26 H26            1.3554     2.7587     0.7375 H       
  27 H27            2.0914     0.0469    -1.8414 H       
  28 H28            3.3363    -0.5409    -0.7157 H       
  29 H29            1.6805    -1.2085     0.9013 H       
  30 H30            1.1331    -1.8287    -0.6745 H       
  31 H31           -3.6870    -1.5476    -0.5107 H       
  32 H32           -6.1333    -0.9839    -0.6779 H       
  33 H33           -3.5120     0.5665     2.3255 H       
  34 H34           -7.7283     1.0887     2.6900 H       
  35 H35           -8.0681    -0.1153     0.5709 H       
@<TRIPOS>BOND
   1    1    2 ar
   2    1    7 1
   3    1    6 ar
   4    2    3 ar
   5    2   10 1
   6    3    4 ar
   7    3   23 1
   8    4    5 ar
   9    4   12 1
  10    5    6 ar
  11    5   24 1
  12    6   25 1
  13    7    8 am
  14    7   26 1
  15    8    9 1
  16    8   11 2
  17    9   10 1
  18    9   27 1
  19    9   28 1
  20   10   29 1
  21   10   30 1
  22   12   13 1
  23   12   31 1
  24   13   14 ar
  25   13   15 ar
  26   14   18 ar
  27   14   32 1
  28   15   16 ar
  29   15   33 1
  30   16   17 ar
  31   16   19 1
  32   17   18 ar
  33   17   34 1
  34   18   35 1
  35   19   20 1
  36   19   21 1
  37   19   22 1

#	End of record

