#	Name: ASD05740109
#	Creating user name:	WinNT
#	Creation time:	15. 06. 2019 21:02

#	Modifying user name:	WinNT
#	Modification time:	15. 06. 2019 21:02

#	Program:	/corina/corina34_cracker 3.40 0067  02.08.2006

@<TRIPOS>MOLECULE
ASD05740109
  54   55    0    0    0
SMALL
NO_CHARGES


@<TRIPOS>ATOM
   1 C1            -0.0166     1.3766     0.0096 C.ar    
   2 C2            -2.9614    -0.4951     3.4386 C.2     
   3 C3            -2.4085    -1.6367     4.0717 C.2     
   4 C4            -2.5799    -0.2024     2.0518 C.2     
   5 C5            -1.7110    -1.0393     1.4337 C.2     
   6 C6            -1.1977    -2.1596     2.1234 C.2     
   7 O7            -1.5448    -2.4293     3.3908 O.3     
   8 C8            -1.2931    -0.7744     0.0102 C.3     
   9 C9             0.0021    -0.0041     0.0020 C.ar    
  10 C10            1.2082    -0.6808    -0.0136 C.ar    
  11 O11           -0.4185    -2.9008     1.5522 O.2     
  12 C12            1.1779     2.0860     0.0020 C.ar    
  13 C13            2.3873     1.4033    -0.0132 C.ar    
  14 C14            2.3988     0.0221    -0.0207 C.ar    
  15 N15            1.1626     3.4826     0.0092 N.am    
  16 S16            2.1576     4.3268    -1.0104 S.o2    
  17 O17            1.8839     5.7036    -0.7893 O.2     
  18 O18            3.4526     3.7593    -0.8683 O.2     
  19 C19           -2.9128    -1.6870     5.3352 C.2     
  20 N20           -3.7426    -0.6322     5.4956 N.pl3   
  21 N21           -3.7652     0.0990     4.3005 N.2     
  22 O22           -2.6318    -2.6317     6.2704 O.3     
  23 C23           -3.1398     0.9984     1.3336 C.3     
  24 C24           -4.4960     0.6406     0.7224 C.3     
  25 N25            1.6691     3.9956    -2.5576 N.am    
  26 C26            0.3450     4.4242    -3.0153 C.3     
  27 C27           -3.2721    -2.4975     7.5409 C.3     
  28 H28           -0.9588     1.9045     0.0169 H       
  29 H29           -1.1555    -1.7221    -0.5104 H       
  30 H30           -2.0653    -0.1923    -0.4928 H       
  31 H31            1.2200    -1.7607    -0.0199 H       
  32 H32            3.3177     1.9517    -0.0191 H       
  33 H33            3.3389    -0.5094    -0.0322 H       
  34 H34            0.5691     3.9581     0.6114 H       
  35 H35           -4.2405    -0.4194     6.3004 H       
  36 H36           -3.2647     1.8188     2.0402 H       
  37 H37           -2.4535     1.3013     0.5428 H       
  38 H38           -5.1823     0.3377     1.5132 H       
  39 H39           -4.9009     1.5091     0.2029 H       
  40 H40           -4.3710    -0.1799     0.0158 H       
  41 H41            2.2596     3.5178    -3.1609 H       
  42 H42            0.2028     4.1195    -4.0521 H       
  43 H43           -0.4215     3.9628    -2.3926 H       
  44 H44            0.2687     5.5090    -2.9416 H       
  45 H45           -4.3534    -2.5296     7.4079 H       
  46 H46           -2.9617    -3.3145     8.1923 H       
  47 H47           -2.9894    -1.5461     7.9915 H       
  48 C48            8.9798    13.3729    15.0605 C.3     
  49 N49            8.9996    11.9081    15.0525 N.2     
  50 C50            9.5403    11.2955    14.1065 C.1     
  51 O51           10.0629    10.7036    13.1923 O.2     
  52 H52           10.0023    13.7502    15.0528 H       
  53 H53            8.4526    13.7340    14.1775 H       
  54 H54            8.4696    13.7244    15.9573 H       
@<TRIPOS>BOND
   1    1    9 ar
   2    1   12 ar
   3    1   28 1
   4    2    3 1
   5    2    4 1
   6    2   21 2
   7    3   19 2
   8    3    7 1
   9    4    5 2
  10    4   23 1
  11    5    6 1
  12    5    8 1
  13    6    7 1
  14    6   11 2
  15    8    9 1
  16    8   29 1
  17    8   30 1
  18    9   10 ar
  19   10   14 ar
  20   10   31 1
  21   12   13 ar
  22   12   15 1
  23   13   14 ar
  24   13   32 1
  25   14   33 1
  26   15   16 am
  27   15   34 1
  28   16   17 2
  29   16   18 2
  30   16   25 am
  31   19   20 1
  32   19   22 1
  33   20   21 1
  34   20   35 1
  35   22   27 1
  36   23   24 1
  37   23   36 1
  38   23   37 1
  39   24   38 1
  40   24   39 1
  41   24   40 1
  42   25   26 1
  43   25   41 1
  44   26   42 1
  45   26   43 1
  46   26   44 1
  47   27   45 1
  48   27   46 1
  49   27   47 1
  50   48   49 1
  51   48   52 1
  52   48   53 1
  53   48   54 1
  54   49   50 2
  55   50   51 2

#	End of record

