#	Name: ASD04882088
#	Creating user name:	WinNT
#	Creation time:	15. 06. 2019 20:54

#	Modifying user name:	WinNT
#	Modification time:	15. 06. 2019 20:54

#	Program:	/corina/corina34_cracker 3.40 0067  02.08.2006

@<TRIPOS>MOLECULE
ASD04882088
  85   89    0    0    0
SMALL
NO_CHARGES


@<TRIPOS>ATOM
   1 C1             2.2109     1.8336    -0.7748 C.ar    
   2 C2             2.2500     0.4560    -0.6884 C.ar    
   3 C3             1.0697    -0.2635    -0.5491 C.ar    
   4 C4            -0.1460     0.4061    -0.4972 C.ar    
   5 C5            -0.1779     1.7843    -0.5842 C.ar    
   6 C6             0.9986     2.4972    -0.7229 C.ar    
   7 C7            -1.4289    -0.3701    -0.3467 C.3     
   8 N8             1.1056    -1.6570    -0.4619 N.3     
   9 C9             0.6890    -2.1121     0.8719 C.3     
  10 C10            2.4405    -2.1715    -0.7976 C.3     
  11 C11            2.4170    -3.7016    -0.7679 C.3     
  12 N12            2.0005    -4.1566     0.5659 N.3     
  13 C13            0.6655    -3.6421     0.9017 C.3     
  14 C14            2.0362    -5.5458     0.6529 C.ar    
  15 C15            1.2528    -6.3149    -0.1995 C.ar    
  16 C16            2.8643    -6.1652     1.5935 C.ar    
  17 C17            2.8996    -7.5436     1.6796 C.ar    
  18 C18            2.1063    -8.3149     0.8249 C.ar    
  19 C19            1.2851    -7.6896    -0.1169 C.ar    
  20 N20            3.6585    -5.3884     2.4483 N.am    
  21 C21            3.9117    -5.8115     3.7026 C.2     
  22 C22            4.6678    -4.9252     4.6585 C.3     
  23 O23            3.5311    -6.9057     4.0620 O.2     
  24 C24            4.8197    -5.6375     6.0055 C.3     
  25 C25            2.1408    -9.7872     0.9133 C.2     
  26 O26            2.8594   -10.3306     1.7299 O.2     
  27 N27            1.3757   -10.5298     0.0890 N.am    
  28 C28            1.4099   -11.9918     0.1767 C.3     
  29 C29            0.4568   -12.5875    -0.8614 C.3     
  30 C30            0.4925   -14.1143    -0.7697 C.3     
  31 N31           -0.4201   -14.6847    -1.7637 N.am    
  32 C32           -0.0358   -15.0347    -3.1362 C.3     
  33 C33           -1.3635   -15.1710    -3.9140 C.3     
  34 C34           -2.3567   -15.5247    -2.7827 C.3     
  35 C35           -1.7156   -14.9600    -1.5342 C.2     
  36 O36           -2.2890   -14.7756    -0.4815 O.2     
  37 C37            5.6403    -4.7586     6.9521 C.3     
  38 N38            6.9604    -4.5016     6.3625 N.3     
  39 C39            6.8420    -3.7764     5.0911 C.3     
  40 C40            6.0572    -4.6259     4.0889 C.3     
  41 C41            7.8251    -3.7770     7.3033 C.3     
  42 H42            3.1285     2.3938    -0.8786 H       
  43 H43            3.1970    -0.0616    -0.7295 H       
  44 H44           -1.1230     2.3055    -0.5439 H       
  45 H45            0.9709     3.5747    -0.7903 H       
  46 H46           -1.6234    -0.5491     0.7108 H       
  47 H47           -2.2519     0.2014    -0.7758 H       
  48 H48           -1.3394    -1.3242    -0.8661 H       
  49 H49            1.3937    -1.7447     1.6180 H       
  50 H50           -0.3072    -1.7287     1.0923 H       
  51 H51            2.7212    -1.8315    -1.7945 H       
  52 H52            3.1651    -1.8048    -0.0705 H       
  53 H53            1.7123    -4.0690    -1.5140 H       
  54 H54            3.4132    -4.0849    -0.9883 H       
  55 H55            0.3848    -3.9822     1.8985 H       
  56 H56           -0.0590    -4.0089     0.1746 H       
  57 H57            0.6170    -5.8337    -0.9280 H       
  58 H58            3.5389    -8.0243     2.4053 H       
  59 H59            0.6716    -8.2844    -0.7774 H       
  60 H60            4.0258    -4.5463     2.1371 H       
  61 H61            4.1221    -3.9922     4.7994 H       
  62 H62            3.8343    -5.8152     6.4363 H       
  63 H63            5.3301    -6.5893     5.8583 H       
  64 H64            0.8024   -10.0963    -0.5624 H       
  65 H65            2.4233   -12.3438    -0.0162 H       
  66 H66            1.1009   -12.3032     1.1746 H       
  67 H67           -0.5566   -12.2355    -0.6684 H       
  68 H68            0.7657   -12.2760    -1.8592 H       
  69 H69            1.5059   -14.4663    -0.9627 H       
  70 H70            0.1835   -14.4257     0.2281 H       
  71 H71            0.5759   -14.2436    -3.5700 H       
  72 H72            0.5063   -15.9803    -3.1466 H       
  73 H73           -1.6348   -14.2292    -4.3909 H       
  74 H74           -1.3052   -15.9753    -4.6474 H       
  75 H75           -3.3239   -15.0558    -2.9638 H       
  76 H76           -2.4661   -16.6057    -2.6953 H       
  77 H77            5.1225    -3.8125     7.1097 H       
  78 H78            5.7624    -5.2692     7.9074 H       
  79 H79            6.3185    -2.8349     5.2574 H       
  80 H80            7.8369    -3.5735     4.6947 H       
  81 H81            6.5871    -5.5618     3.9115 H       
  82 H82            5.9560    -4.0809     3.1504 H       
  83 H83            7.9560    -4.3710     8.2078 H       
  84 H84            8.7964    -3.5997     6.8413 H       
  85 H85            7.3647    -2.8227     7.5588 H       
@<TRIPOS>BOND
   1    1    2 ar
   2    1    6 ar
   3    1   42 1
   4    2    3 ar
   5    2   43 1
   6    3    4 ar
   7    3    8 1
   8    4    5 ar
   9    4    7 1
  10    5    6 ar
  11    5   44 1
  12    6   45 1
  13    7   46 1
  14    7   47 1
  15    7   48 1
  16    8    9 1
  17    8   10 1
  18    9   13 1
  19    9   49 1
  20    9   50 1
  21   10   11 1
  22   10   51 1
  23   10   52 1
  24   11   12 1
  25   11   53 1
  26   11   54 1
  27   12   13 1
  28   12   14 1
  29   13   55 1
  30   13   56 1
  31   14   15 ar
  32   14   16 ar
  33   15   19 ar
  34   15   57 1
  35   16   17 ar
  36   16   20 1
  37   17   18 ar
  38   17   58 1
  39   18   19 ar
  40   18   25 1
  41   19   59 1
  42   20   21 am
  43   20   60 1
  44   21   22 1
  45   21   23 2
  46   22   24 1
  47   22   40 1
  48   22   61 1
  49   24   37 1
  50   24   62 1
  51   24   63 1
  52   25   26 2
  53   25   27 am
  54   27   28 1
  55   27   64 1
  56   28   29 1
  57   28   65 1
  58   28   66 1
  59   29   30 1
  60   29   67 1
  61   29   68 1
  62   30   31 1
  63   30   69 1
  64   30   70 1
  65   31   32 1
  66   31   35 am
  67   32   33 1
  68   32   71 1
  69   32   72 1
  70   33   34 1
  71   33   73 1
  72   33   74 1
  73   34   35 1
  74   34   75 1
  75   34   76 1
  76   35   36 2
  77   37   38 1
  78   37   77 1
  79   37   78 1
  80   38   39 1
  81   38   41 1
  82   39   40 1
  83   39   79 1
  84   39   80 1
  85   40   81 1
  86   40   82 1
  87   41   83 1
  88   41   84 1
  89   41   85 1

#	End of record

