#	Name: ASD03240575
#	Creating user name:	WinNT
#	Creation time:	15. 06. 2019 20:35

#	Modifying user name:	WinNT
#	Modification time:	15. 06. 2019 20:35

#	Program:	/corina/corina34_cracker 3.40 0067  02.08.2006

@<TRIPOS>MOLECULE
ASD03240575
  65   71    0    0    0
SMALL
NO_CHARGES


@<TRIPOS>ATOM
   1 C1            -0.0514     1.4650     0.0998 C.ar    
   2 C2            -0.0483     0.0855     0.1168 C.ar    
   3 N3             1.0843    -0.5917     0.1159 N.ar    
   4 C4             2.2634     0.0150     0.0997 C.ar    
   5 C5             2.3348     1.4064     0.0679 C.ar    
   6 C6             1.1591     2.1454     0.0743 C.ar    
   7 N7             3.4227    -0.7552     0.1361 N.pl3   
   8 C8             4.3058    -0.6589     1.2082 C.ar    
   9 C9             4.9566     0.5480     1.4873 C.ar    
  10 C10            4.7342     1.7288     0.6253 C.2     
  11 N11            3.5661     2.0745     0.0115 N.pl3   
  12 C12            4.5430    -1.7666     2.0108 C.ar    
  13 C13            5.4090    -1.6713     3.0835 C.ar    
  14 C14            6.0442    -0.4747     3.3679 C.ar    
  15 C15            5.8234     0.6346     2.5767 C.ar    
  16 N16            5.6543     2.6266     0.3258 N.2     
  17 C17            5.1334     3.5604    -0.4771 C.2     
  18 C18            3.8093     3.2402    -0.6986 C.2     
  19 C19            2.8451     3.9891    -1.5266 C.ar    
  20 C20            2.7657     5.3807    -1.4264 C.ar    
  21 C21            2.0106     3.3109    -2.4192 C.ar    
  22 C22            1.1117     4.0177    -3.1900 C.ar    
  23 C23            1.0347     5.3952    -3.0812 C.ar    
  24 C24            1.8619     6.0741    -2.2036 C.ar    
  25 S25            5.9866     4.9543    -1.1357 S.3     
  26 C26            0.0497     6.1603    -3.9271 C.3     
  27 N27           -1.0423     5.3181    -4.4335 N.3     
  28 C28           -0.4315     7.4696    -3.2799 C.3     
  29 C29           -0.3398     8.1026    -4.6784 C.3     
  30 C30            0.7116     7.0281    -5.0105 C.3     
  31 C31            7.5632     4.8594    -0.3546 C.ar    
  32 C32            8.5697     4.0810    -0.9125 C.ar    
  33 C33            7.8025     5.5674     0.8166 C.ar    
  34 C34            9.0383     5.4922     1.4278 C.ar    
  35 C35           10.0408     4.7102     0.8730 C.ar    
  36 C36            9.8048     4.0073    -0.2996 C.ar    
  37 O37           11.2577     4.6373     1.4756 O.3     
  38 C38           12.2433     3.8132     0.8498 C.3     
  39 H39           -0.9842     2.0093     0.1017 H       
  40 H40           -0.9871    -0.4483     0.1314 H       
  41 H41            1.1854     3.2249     0.0595 H       
  42 H42            3.6170    -1.3651    -0.5927 H       
  43 H43            4.0506    -2.7036     1.7964 H       
  44 H44            5.5911    -2.5360     3.7044 H       
  45 H45            6.7150    -0.4088     4.2118 H       
  46 H46            6.3198     1.5672     2.8010 H       
  47 H47            3.4104     5.9118    -0.7417 H       
  48 H48            2.0699     2.2360    -2.5054 H       
  49 H49            0.4664     3.4950    -3.8805 H       
  50 H50            1.7963     7.1492    -2.1240 H       
  51 H51           -0.6820     4.4834    -4.8710 H       
  52 H52           -1.6930     5.0886    -3.6973 H       
  53 H53           -1.4482     7.4164    -2.8906 H       
  54 H54            0.2756     7.8884    -2.5639 H       
  55 H55           -1.2564     8.0095    -5.2608 H       
  56 H56            0.0583     9.1173    -4.6731 H       
  57 H57            1.7317     7.3256    -4.7678 H       
  58 H58            0.6165     6.6205    -6.0169 H       
  59 H59            8.3861     3.5334    -1.8252 H       
  60 H60            7.0223     6.1766     1.2486 H       
  61 H61            9.2247     6.0428     2.3381 H       
  62 H62           10.5859     3.3988    -0.7307 H       
  63 H63           11.8797     2.7869     0.7989 H       
  64 H64           12.4371     4.1804    -0.1581 H       
  65 H65           13.1648     3.8438     1.4311 H       
@<TRIPOS>BOND
   1    1    2 ar
   2    1    6 ar
   3    1   39 1
   4    2    3 ar
   5    2   40 1
   6    3    4 ar
   7    4    5 ar
   8    4    7 1
   9    5    6 ar
  10    5   11 1
  11    6   41 1
  12    7    8 1
  13    7   42 1
  14    8    9 ar
  15    8   12 ar
  16    9   10 1
  17    9   15 ar
  18   10   11 1
  19   10   16 2
  20   11   18 1
  21   12   13 ar
  22   12   43 1
  23   13   14 ar
  24   13   44 1
  25   14   15 ar
  26   14   45 1
  27   15   46 1
  28   16   17 1
  29   17   18 2
  30   17   25 1
  31   18   19 1
  32   19   20 ar
  33   19   21 ar
  34   20   24 ar
  35   20   47 1
  36   21   22 ar
  37   21   48 1
  38   22   23 ar
  39   22   49 1
  40   23   24 ar
  41   23   26 1
  42   24   50 1
  43   25   31 1
  44   26   27 1
  45   26   28 1
  46   26   30 1
  47   27   51 1
  48   27   52 1
  49   28   29 1
  50   28   53 1
  51   28   54 1
  52   29   30 1
  53   29   55 1
  54   29   56 1
  55   30   57 1
  56   30   58 1
  57   31   32 ar
  58   31   33 ar
  59   32   36 ar
  60   32   59 1
  61   33   34 ar
  62   33   60 1
  63   34   35 ar
  64   34   61 1
  65   35   36 ar
  66   35   37 1
  67   36   62 1
  68   37   38 1
  69   38   63 1
  70   38   64 1
  71   38   65 1

#	End of record

