#	Name: ASD01150519
#	Creating user name:	WinNT
#	Creation time:	15. 06. 2019 19:04

#	Modifying user name:	WinNT
#	Modification time:	15. 06. 2019 19:04

#	Program:	/corina/corina34_cracker 3.40 0067  02.08.2006

@<TRIPOS>MOLECULE
ASD01150519
  52   54    0    0    0
SMALL
NO_CHARGES


@<TRIPOS>ATOM
   1 C1             1.9144     1.4015     0.9689 C.ar    
   2 C2             1.9596     0.0212     0.9431 C.ar    
   3 C3             0.4927     0.0046    -0.9572 C.ar    
   4 C4             0.4447     1.3911    -0.9340 C.ar    
   5 C5             1.1564     2.0910     0.0300 C.ar    
   6 N6             1.1107     3.4892     0.0569 N.am    
   7 C7            -0.0778     4.1147    -0.0076 C.2     
   8 N8            -0.1587     5.4581     0.0163 N.am    
   9 C9             0.9638     6.2012     0.1062 C.2     
  10 C10            2.2670     5.5230     0.1772 C.2     
  11 N11            2.3025     4.2167     0.1565 N.2     
  12 O12            0.8990     7.4163     0.1280 O.2     
  13 C13           -1.4667     6.1140    -0.0560 C.3     
  14 O14           -1.0967     3.4557    -0.0894 O.2     
  15 C15           -2.0090     6.3080     1.3366 C.ar    
  16 O16            3.4153     6.2431     0.2679 O.3     
  17 C17            4.6388     5.5076     0.3324 C.3     
  18 C18            1.2519    -0.6785    -0.0156 C.ar    
  19 C19           -1.7291     7.4624     2.0388 C.ar    
  20 N20           -2.1981     7.6441     3.2592 N.ar    
  21 C21           -2.9507     6.7341     3.8565 C.ar    
  22 C22           -3.2731     5.5441     3.2072 C.ar    
  23 C23           -2.8002     5.3289     1.9239 C.ar    
  24 N24           -0.2232    -0.7049    -1.9279 N.am    
  25 C25            0.2667    -1.8622    -2.4148 C.2     
  26 O26            1.3685    -2.2429    -2.0798 O.2     
  27 C27           -0.5544    -2.6831    -3.3754 C.3     
  28 F28           -4.0413     4.6162     3.8188 F       
  29 N29           -3.4238     6.9674     5.1441 N.3     
  30 C30           -2.9709     8.2728     5.6429 C.3     
  31 C31           -4.8884     6.8642     5.1936 C.3     
  32 H32            2.4650     1.9453     1.7222 H       
  33 H33            2.5496    -0.5123     1.6737 H       
  34 H34           -0.1451     1.9245    -1.6648 H       
  35 H35           -1.3607     7.0834    -0.5429 H       
  36 H36           -2.1537     5.4922    -0.6300 H       
  37 H37            4.6284     4.8612     1.2100 H       
  38 H38            4.7448     4.8992    -0.5658 H       
  39 H39            5.4766     6.2014     0.4022 H       
  40 H40            1.2893    -1.7577    -0.0330 H       
  41 H41           -1.1176     8.2275     1.5837 H       
  42 H42           -3.0333     4.4166     1.3951 H       
  43 H43           -1.0720    -0.3637    -2.2503 H       
  44 H44           -0.7695    -2.0928    -4.2661 H       
  45 H45            0.0022    -3.5768    -3.6575 H       
  46 H46           -1.4900    -2.9736    -2.8974 H       
  47 H47           -3.3405     9.0607     4.9867 H       
  48 H48           -3.3548     8.4296     6.6510 H       
  49 H49           -1.8813     8.2966     5.6613 H       
  50 H50           -5.1928     5.8640     4.8853 H       
  51 H51           -5.2316     7.0509     6.2112 H       
  52 H52           -5.3275     7.6011     4.5211 H       
@<TRIPOS>BOND
   1    1    2 ar
   2    1    5 ar
   3    1   32 1
   4    2   18 ar
   5    2   33 1
   6    3    4 ar
   7    3   24 1
   8    3   18 ar
   9    4    5 ar
  10    4   34 1
  11    5    6 1
  12    6    7 am
  13    6   11 1
  14    7    8 am
  15    7   14 2
  16    8    9 am
  17    8   13 1
  18    9   10 1
  19    9   12 2
  20   10   11 2
  21   10   16 1
  22   13   15 1
  23   13   35 1
  24   13   36 1
  25   15   19 ar
  26   15   23 ar
  27   16   17 1
  28   17   37 1
  29   17   38 1
  30   17   39 1
  31   18   40 1
  32   19   20 ar
  33   19   41 1
  34   20   21 ar
  35   21   22 ar
  36   21   29 1
  37   22   23 ar
  38   22   28 1
  39   23   42 1
  40   24   25 am
  41   24   43 1
  42   25   26 2
  43   25   27 1
  44   27   44 1
  45   27   45 1
  46   27   46 1
  47   29   30 1
  48   29   31 1
  49   30   47 1
  50   30   48 1
  51   30   49 1
  52   31   50 1
  53   31   51 1
  54   31   52 1

#	End of record

