#	Name: ASD04640016
#	Creating user name:	WinNT
#	Creation time:	15. 06. 2019 20:52

#	Modifying user name:	WinNT
#	Modification time:	15. 06. 2019 20:52

#	Program:	/corina/corina34_cracker 3.40 0067  02.08.2006

@<TRIPOS>MOLECULE
ASD04640016
  22   23    0    0    0
SMALL
NO_CHARGES


@<TRIPOS>ATOM
   1 C1            -0.0168     1.3898     0.0097 C.ar    
   2 C2             0.0021    -0.0041     0.0020 C.ar    
   3 C3             1.2263    -0.6761    -0.0139 C.ar    
   4 C4             2.3997     0.0449    -0.0196 C.ar    
   5 C5             2.3755     1.4331    -0.0092 C.ar    
   6 C6             1.1694     2.1038     0.0022 C.ar    
   7 C7             1.0970     3.6086     0.0019 C.3     
   8 C8             3.6899     2.1717    -0.0044 C.3     
   9 C9             3.4715     3.6296    -0.4094 C.3     
  10 N10            2.3823     4.1844     0.4097 N.3     
  11 C11           -1.2252    -0.7418     0.0108 C.1     
  12 N12           -2.1989    -1.3270     0.0178 N.1     
  13 H13           -0.9606     1.9148     0.0170 H       
  14 H14            1.2526    -1.7557    -0.0212 H       
  15 H15            3.3468    -0.4740    -0.0319 H       
  16 H16            0.8480     3.9571    -1.0005 H       
  17 H17            0.3210     3.9321     0.6955 H       
  18 H18            4.1219     2.1348     0.9957 H       
  19 H19            4.3732     1.6988    -0.7097 H       
  20 H20            4.3853     4.1982    -0.2371 H       
  21 H21            3.1990     3.6799    -1.4635 H       
  22 H22            2.3624     5.1915     0.3507 H       
@<TRIPOS>BOND
   1    1    2 ar
   2    1    6 ar
   3    1   13 1
   4    2    3 ar
   5    2   11 1
   6    3    4 ar
   7    3   14 1
   8    4    5 ar
   9    4   15 1
  10    5    6 ar
  11    5    8 1
  12    6    7 1
  13    7   10 1
  14    7   16 1
  15    7   17 1
  16    8    9 1
  17    8   18 1
  18    8   19 1
  19    9   10 1
  20    9   20 1
  21    9   21 1
  22   10   22 1
  23   11   12 3

#	End of record

