#	Name: ASD01812291
#	Creating user name:	WinNT
#	Creation time:	15. 06. 2019 19:28

#	Modifying user name:	WinNT
#	Modification time:	15. 06. 2019 19:28

#	Program:	/corina/corina34_cracker 3.40 0067  02.08.2006

@<TRIPOS>MOLECULE
ASD01812291
  70   75    0    0    0
SMALL
NO_CHARGES


@<TRIPOS>ATOM
   1 C1            -0.0168     1.3896     0.0097 C.ar    
   2 C2             0.0021    -0.0041     0.0020 C.ar    
   3 C3             1.1949    -0.6694    -0.0129 C.ar    
   4 C4             2.3801     0.0896    -0.0201 C.ar    
   5 C5             2.2888     1.5050    -0.0117 C.ar    
   6 N6             1.0882     2.0936     0.0029 N.ar    
   7 C7             3.6422    -0.5284    -0.0349 C.ar    
   8 C8             4.7712     0.2254    -0.0412 C.ar    
   9 C9             4.7001     1.6316    -0.0331 C.ar    
  10 C10            3.4670     2.2625    -0.0189 C.ar    
  11 C11            3.7425    -2.0320    -0.0434 C.3     
  12 C12            5.7518     2.6693    -0.0373 C.2     
  13 N13            5.1985     3.8941    -0.0257 N.am    
  14 C14            3.7387     3.7458    -0.0134 C.3     
  15 O15            6.9468     2.4470    -0.0494 O.2     
  16 C16            5.9298     5.1635    -0.0250 C.3     
  17 C17            6.7980     5.2527    -1.2816 C.3     
  18 C18            7.5617     6.5784    -1.2809 C.3     
  19 C19            8.4525     6.6532    -0.0392 C.3     
  20 C20            7.5843     6.5640     1.2175 C.3     
  21 C21            6.8205     5.2383     1.2167 C.3     
  22 N22            3.5225    -2.5298    -1.4078 N.3     
  23 C23            3.8443    -3.9604    -1.5048 C.3     
  24 C24            3.5270    -4.4574    -2.9171 C.3     
  25 N25            4.3022    -3.6788    -3.8932 N.3     
  26 C26            3.9804    -2.2482    -3.7962 C.3     
  27 C27            4.2976    -1.7513    -2.3839 C.3     
  28 O28            5.9661     5.1828    -2.4414 O.3     
  29 C29            4.0925    -4.1530    -5.1930 C.ar    
  30 C30            4.7369    -3.5498    -6.2649 C.ar    
  31 C31            4.5294    -4.0184    -7.5474 C.ar    
  32 C32            3.6774    -5.0910    -7.7649 C.ar    
  33 C33            3.0330    -5.6939    -6.6948 C.ar    
  34 C34            3.2445    -5.2307    -5.4109 C.ar    
  35 O35            3.4733    -5.5515    -9.0282 O.3     
  36 C36            2.5831    -6.6592    -9.1789 C.3     
  37 H37           -0.9672     1.9026     0.0169 H       
  38 H38           -0.9254    -0.5573     0.0082 H       
  39 H39            1.2277    -1.7489    -0.0187 H       
  40 H40            5.7361    -0.2597    -0.0523 H       
  41 H41            4.7335    -2.3319     0.2974 H       
  42 H42            2.9874    -2.4503     0.6222 H       
  43 H43            3.3074     4.2091    -0.9007 H       
  44 H44            3.3234     4.1995     0.8865 H       
  45 H45            5.2207     5.9913    -0.0138 H       
  46 H46            7.5071     4.4249    -1.2928 H       
  47 H47            8.1803     6.6419    -2.1761 H       
  48 H48            6.8527     7.4062    -1.2697 H       
  49 H49            9.1616     5.8254    -0.0503 H       
  50 H50            8.9966     7.5977    -0.0386 H       
  51 H51            8.2189     6.6173     2.1021 H       
  52 H52            6.8752     7.3918     1.2286 H       
  53 H53            6.2020     5.1748     2.1120 H       
  54 H54            7.5296     4.4105     1.2056 H       
  55 H55            4.9036    -4.1098    -1.2961 H       
  56 H56            3.2487    -4.5170    -0.7811 H       
  57 H57            3.7921    -5.5114    -2.9999 H       
  58 H58            2.4625    -4.3330    -3.1159 H       
  59 H59            4.5759    -1.6916    -4.5199 H       
  60 H60            2.9210    -2.0988    -4.0049 H       
  61 H61            4.0326    -0.6972    -2.3011 H       
  62 H62            5.3621    -1.8756    -2.1851 H       
  63 H63            6.4506     5.2335    -3.2766 H       
  64 H64            5.3999    -2.7141    -6.0959 H       
  65 H65            5.0305    -3.5493    -8.3812 H       
  66 H66            2.3694    -6.5288    -6.8651 H       
  67 H67            2.7429    -5.7005    -4.5778 H       
  68 H68            2.9637    -7.5106    -8.6147 H       
  69 H69            1.5968    -6.3864    -8.8037 H       
  70 H70            2.5099    -6.9256   -10.2334 H       
@<TRIPOS>BOND
   1    1    2 ar
   2    1    6 ar
   3    1   37 1
   4    2    3 ar
   5    2   38 1
   6    3    4 ar
   7    3   39 1
   8    4    5 ar
   9    4    7 ar
  10    5    6 ar
  11    5   10 ar
  12    7    8 ar
  13    7   11 1
  14    8    9 ar
  15    8   40 1
  16    9   10 ar
  17    9   12 1
  18   10   14 1
  19   11   22 1
  20   11   41 1
  21   11   42 1
  22   12   13 am
  23   12   15 2
  24   13   14 1
  25   13   16 1
  26   14   43 1
  27   14   44 1
  28   16   17 1
  29   16   21 1
  30   16   45 1
  31   17   18 1
  32   17   28 1
  33   17   46 1
  34   18   19 1
  35   18   47 1
  36   18   48 1
  37   19   20 1
  38   19   49 1
  39   19   50 1
  40   20   21 1
  41   20   51 1
  42   20   52 1
  43   21   53 1
  44   21   54 1
  45   22   23 1
  46   22   27 1
  47   23   24 1
  48   23   55 1
  49   23   56 1
  50   24   25 1
  51   24   57 1
  52   24   58 1
  53   25   26 1
  54   25   29 1
  55   26   27 1
  56   26   59 1
  57   26   60 1
  58   27   61 1
  59   27   62 1
  60   28   63 1
  61   29   30 ar
  62   29   34 ar
  63   30   31 ar
  64   30   64 1
  65   31   32 ar
  66   31   65 1
  67   32   35 1
  68   32   33 ar
  69   33   34 ar
  70   33   66 1
  71   34   67 1
  72   35   36 1
  73   36   68 1
  74   36   69 1
  75   36   70 1

#	End of record

