#	Name: ASD03430229
#	Creating user name:	WinNT
#	Creation time:	15. 06. 2019 20:40

#	Modifying user name:	WinNT
#	Modification time:	15. 06. 2019 20:40

#	Program:	/corina/corina34_cracker 3.40 0067  02.08.2006

@<TRIPOS>MOLECULE
ASD03430229
  50   55    0    0    0
SMALL
NO_CHARGES


@<TRIPOS>ATOM
   1 C1            -1.0350     1.0874     0.5729 C.ar    
   2 C2            -0.8535    -0.2863     0.4610 C.ar    
   3 C3             0.4258    -0.8119     0.4292 C.ar    
   4 C4             1.5373     0.0198     0.5175 C.ar    
   5 C5             1.3448     1.3940     0.6245 C.ar    
   6 C6             0.0699     1.9212     0.6512 C.ar    
   7 O7             2.6956    -0.6998     0.4936 O.3     
   8 C8             0.9494    -2.2164     0.2950 C.3     
   9 C9             2.4308    -2.0081    -0.0487 C.3     
  10 C10            0.0245    -4.1308     1.1898 C.ar    
  11 C11            0.7740    -3.0143     1.5529 C.ar    
  12 C12            0.2323    -2.9925    -0.7719 C.2     
  13 N13           -0.2757    -4.0885    -0.1738 N.am    
  14 O14            0.1297    -2.6918    -1.9424 O.2     
  15 C15            1.1855    -2.8401     2.8549 C.ar    
  16 C16            0.8565    -3.7785     3.8174 C.ar    
  17 C17            0.1139    -4.8911     3.4681 C.ar    
  18 C18           -0.3016    -5.0699     2.1647 C.ar    
  19 O19           -2.2852     1.6253     0.6124 O.3     
  20 O20           -1.9237    -1.1240     0.3788 O.3     
  21 C21           -3.1881    -0.5952     0.7925 C.3     
  22 C22           -3.3592     0.7918     0.1632 C.3     
  23 C23           -1.0518    -5.1160    -0.8725 C.3     
  24 C24           -0.1142    -6.1284    -1.4784 C.ar    
  25 N25            0.7265    -6.7840    -0.7026 N.ar    
  26 C26            1.5649    -7.6787    -1.1885 C.ar    
  27 C27            1.5910    -7.9617    -2.5408 C.ar    
  28 C28            0.7213    -7.2921    -3.3882 C.ar    
  29 C29           -0.1495    -6.3631    -2.8401 C.ar    
  30 C30           -1.1141    -5.6098    -3.7195 C.3     
  31 F31           -1.0041    -6.0721    -5.0353 F       
  32 F32           -2.4200    -5.8141    -3.2611 F       
  33 F33           -0.8137    -4.2441    -3.6783 F       
  34 H34            2.1988     2.0520     0.6874 H       
  35 H35           -0.0680     2.9892     0.7335 H       
  36 H36            2.5829    -2.0178    -1.1280 H       
  37 H37            3.0507    -2.7614     0.4375 H       
  38 H38            1.7660    -1.9704     3.1255 H       
  39 H39            1.1794    -3.6421     4.8389 H       
  40 H40           -0.1425    -5.6236     4.2192 H       
  41 H41           -0.8818    -5.9414     1.8996 H       
  42 H42           -3.9895    -1.2535     0.4571 H       
  43 H43           -3.2128    -0.5089     1.8788 H       
  44 H44           -4.3129     1.2203     0.4714 H       
  45 H45           -3.3266     0.7092    -0.9232 H       
  46 H46           -1.7159    -5.6132    -0.1656 H       
  47 H47           -1.6432    -4.6509    -1.6612 H       
  48 H48            2.2390    -8.1959    -0.5218 H       
  49 H49            2.2803    -8.6949    -2.9327 H       
  50 H50            0.7196    -7.4925    -4.4495 H       
@<TRIPOS>BOND
   1    1    2 ar
   2    1    6 ar
   3    1   19 1
   4    2    3 ar
   5    2   20 1
   6    3    4 ar
   7    3    8 1
   8    4    5 ar
   9    4    7 1
  10    5    6 ar
  11    5   34 1
  12    6   35 1
  13    7    9 1
  14    8    9 1
  15    8   11 1
  16    8   12 1
  17    9   36 1
  18    9   37 1
  19   10   11 ar
  20   10   13 1
  21   10   18 ar
  22   11   15 ar
  23   12   13 am
  24   12   14 2
  25   13   23 1
  26   15   16 ar
  27   15   38 1
  28   16   17 ar
  29   16   39 1
  30   17   18 ar
  31   17   40 1
  32   18   41 1
  33   19   22 1
  34   20   21 1
  35   21   22 1
  36   21   42 1
  37   21   43 1
  38   22   44 1
  39   22   45 1
  40   23   24 1
  41   23   46 1
  42   23   47 1
  43   24   25 ar
  44   24   29 ar
  45   25   26 ar
  46   26   27 ar
  47   26   48 1
  48   27   28 ar
  49   27   49 1
  50   28   29 ar
  51   28   50 1
  52   29   30 1
  53   30   31 1
  54   30   32 1
  55   30   33 1

#	End of record

