#	Name: ASD05313064
#	Creating user name:	WinNT
#	Creation time:	15. 06. 2019 20:58

#	Modifying user name:	WinNT
#	Modification time:	15. 06. 2019 20:58

#	Program:	/corina/corina34_cracker 3.40 0067  02.08.2006

@<TRIPOS>MOLECULE
ASD05313064
  38   41    0    0    0
SMALL
NO_CHARGES


@<TRIPOS>ATOM
   1 C1            -0.0730     0.8185     1.0200 C.2     
   2 C2             0.1132    -0.6180     0.5937 C.3     
   3 N3             0.9358     1.7351     1.0462 N.pl3   
   4 N4             1.4569    -0.7171    -0.0071 N.am    
   5 C5             2.5716    -0.0372     0.6698 C.3     
   6 C6             2.3219     1.4756     0.6617 C.3     
   7 N7            -0.8994     2.6446     1.7008 N.2     
   8 N8            -1.1552     1.4127     1.4214 N.2     
   9 C9             0.3767     2.8945     1.4885 C.2     
  10 C10            2.3348     4.4064     1.1506 C.ar    
  11 C11            1.0692     4.1855     1.6947 C.ar    
  12 C12            0.4657     5.2055     2.4381 C.ar    
  13 C13            1.1552     6.3945     2.6013 C.ar    
  14 C14            2.4067     6.5351     2.0298 C.ar    
  15 N15            2.9510     5.5557     1.3332 N.ar    
  16 C16            1.6575    -1.4117    -1.1445 C.2     
  17 O17            2.7494    -1.4009    -1.6787 O.2     
  18 C18            0.5501    -2.1863    -1.7423 C.ar    
  19 C19            0.3185    -2.1315    -3.1190 C.ar    
  20 C20           -0.7194    -2.8590    -3.6706 C.ar    
  21 C21           -1.5273    -3.6391    -2.8614 C.ar    
  22 C22           -1.3022    -3.6962    -1.4974 C.ar    
  23 C23           -0.2658    -2.9805    -0.9347 C.ar    
  24 Cl24          -1.0105    -2.7937    -5.3807 Cl      
  25 Cl25           1.3309    -1.1523    -4.1338 Cl      
  26 H26            0.0437    -1.2754     1.4604 H       
  27 H27           -0.6442    -0.8890    -0.1418 H       
  28 H28            2.6410    -0.3887     1.6992 H       
  29 H29            3.5025    -0.2553     0.1465 H       
  30 H30            2.5020     1.8685    -0.3390 H       
  31 H31            2.9934     1.9600     1.3706 H       
  32 H32            2.8149     3.6265     0.5781 H       
  33 H33           -0.5133     5.0689     2.8733 H       
  34 H34            0.7204     7.2041     3.1687 H       
  35 H35            2.9471     7.4617     2.1555 H       
  36 H36           -2.3373    -4.2055    -3.2967 H       
  37 H37           -1.9367    -4.3067    -0.8721 H       
  38 H38           -0.0891    -3.0305     0.1295 H       
@<TRIPOS>BOND
   1    1    2 1
   2    1    3 1
   3    1    8 2
   4    2    4 1
   5    2   26 1
   6    2   27 1
   7    3    6 1
   8    3    9 1
   9    4    5 1
  10    4   16 am
  11    5    6 1
  12    5   28 1
  13    5   29 1
  14    6   30 1
  15    6   31 1
  16    7    8 1
  17    7    9 2
  18    9   11 1
  19   10   11 ar
  20   10   15 ar
  21   10   32 1
  22   11   12 ar
  23   12   13 ar
  24   12   33 1
  25   13   14 ar
  26   13   34 1
  27   14   15 ar
  28   14   35 1
  29   16   17 2
  30   16   18 1
  31   18   19 ar
  32   18   23 ar
  33   19   20 ar
  34   19   25 1
  35   20   21 ar
  36   20   24 1
  37   21   22 ar
  38   21   36 1
  39   22   23 ar
  40   22   37 1
  41   23   38 1

#	End of record

