#	Name: ASD03430773
#	Creating user name:	WinNT
#	Creation time:	15. 06. 2019 20:41

#	Modifying user name:	WinNT
#	Modification time:	15. 06. 2019 20:41

#	Program:	/corina/corina34_cracker 3.40 0067  02.08.2006

@<TRIPOS>MOLECULE
ASD03430773
  36   39    0    0    0
SMALL
NO_CHARGES


@<TRIPOS>ATOM
   1 C1            -0.0167     1.3777     0.0096 C.ar    
   2 C2             0.0021    -0.0041     0.0020 C.ar    
   3 C3             1.2026    -0.6814    -0.0129 C.ar    
   4 C4             2.4093     0.0137    -0.0107 C.ar    
   5 C5             2.3857     1.4047    -0.0081 C.ar    
   6 C6             1.1790     2.0825     0.0020 C.ar    
   7 C7             1.5516    -2.1451    -0.0453 C.3     
   8 C8             3.0381    -2.1447    -0.4281 C.3     
   9 C9             0.0901    -3.9118    -0.2987 C.ar    
  10 C10            0.7206    -2.9097    -1.0325 C.ar    
  11 C11            1.3162    -2.8162     1.2773 C.2     
  12 N12            0.4584    -3.8300     1.0463 N.am    
  13 O13            1.8030    -2.5070     2.3443 O.2     
  14 C14            0.5067    -2.7936    -2.3874 C.ar    
  15 C15           -0.3395    -3.6774    -3.0339 C.ar    
  16 C16           -0.9701    -4.6764    -2.3156 C.ar    
  17 C17           -0.7596    -4.7966    -0.9574 C.ar    
  18 O18            3.4713    -0.8401     0.0021 O.3     
  19 O19            1.1648     3.4414     0.0045 O.3     
  20 C20            2.4312     4.1034    -0.0037 C.3     
  21 C21           -1.3302     2.1164     0.0199 C.3     
  22 H22           -0.9268    -0.5551     0.0081 H       
  23 H23            3.3131     1.9581    -0.0138 H       
  24 H24            3.5758    -2.9272     0.1074 H       
  25 H25            3.1604    -2.2574    -1.5053 H       
  26 H26            0.1342    -4.4323     1.7340 H       
  27 H27            1.0001    -2.0123    -2.9465 H       
  28 H28           -0.5073    -3.5868    -4.0969 H       
  29 H29           -1.6303    -5.3663    -2.8202 H       
  30 H30           -1.2554    -5.5798    -0.4032 H       
  31 H31            2.9846     3.8179    -0.8984 H       
  32 H32            2.2772     5.1824    -0.0007 H       
  33 H33            2.9979     3.8147     0.8816 H       
  34 H34           -1.6420     2.2890     1.0500 H       
  35 H35           -1.2130     3.0730    -0.4893 H       
  36 H36           -2.0856     1.5216    -0.4936 H       
@<TRIPOS>BOND
   1    1    2 ar
   2    1    6 ar
   3    1   21 1
   4    2    3 ar
   5    2   22 1
   6    3    4 ar
   7    3    7 1
   8    4    5 ar
   9    4   18 1
  10    5    6 ar
  11    5   23 1
  12    6   19 1
  13    7    8 1
  14    7   10 1
  15    7   11 1
  16    8   18 1
  17    8   24 1
  18    8   25 1
  19    9   10 ar
  20    9   12 1
  21    9   17 ar
  22   10   14 ar
  23   11   12 am
  24   11   13 2
  25   12   26 1
  26   14   15 ar
  27   14   27 1
  28   15   16 ar
  29   15   28 1
  30   16   17 ar
  31   16   29 1
  32   17   30 1
  33   19   20 1
  34   20   31 1
  35   20   32 1
  36   20   33 1
  37   21   34 1
  38   21   35 1
  39   21   36 1

#	End of record

