#	Name: ASD03080149
#	Creating user name:	WinNT
#	Creation time:	15. 06. 2019 20:26

#	Modifying user name:	WinNT
#	Modification time:	15. 06. 2019 20:26

#	Program:	/corina/corina34_cracker 3.40 0067  02.08.2006

@<TRIPOS>MOLECULE
ASD03080149
  41   44    0    0    0
SMALL
NO_CHARGES


@<TRIPOS>ATOM
   1 C1            -0.0180     1.4790     0.0102 C.ar    
   2 C2             0.0021    -0.0041     0.0020 C.ar    
   3 C3             1.1778     2.1948     0.0026 C.ar    
   4 C4            -1.1987    -0.7221     0.0096 C.ar    
   5 C5            -1.2329     2.1620     0.0196 C.ar    
   6 C6            -1.2456     3.5420     0.0267 C.ar    
   7 C7            -0.0556     4.2473     0.0244 C.ar    
   8 C8             1.1530     3.5747     0.0098 C.ar    
   9 C9            -1.1286    -2.1034     0.0016 C.ar    
  10 C10            0.1355    -2.6954    -0.0136 C.ar    
  11 N11            1.2210    -1.9352    -0.0199 N.ar    
  12 N12            1.1580    -0.6532    -0.0180 N.ar    
  13 N13            0.2555    -4.0800    -0.0217 N.3     
  14 C14            1.6827    -4.4905    -0.0376 C.3     
  15 C15           -0.2789    -4.6679     1.2331 C.3     
  16 C16            0.3793    -6.0603     1.3250 C.3     
  17 C17            1.6786    -5.9428     0.4833 C.3     
  18 C18            0.8644    -6.2871     2.7719 C.3     
  19 N19            2.2237    -6.8676     2.6275 N.3     
  20 C20            2.8260    -6.1097     1.5012 C.3     
  21 C21            3.0053    -6.6906     3.8587 C.3     
  22 H22            2.1220     1.6707    -0.0085 H       
  23 H23           -2.1513    -0.2133     0.0218 H       
  24 H24           -2.1625     1.6124     0.0210 H       
  25 H25           -2.1864     4.0724     0.0336 H       
  26 H26           -0.0703     5.3272     0.0296 H       
  27 H27            2.0791     4.1304     0.0084 H       
  28 H28           -2.0249    -2.7059     0.0073 H       
  29 H29            2.0776    -4.4523    -1.0528 H       
  30 H30            2.2689    -3.8518     0.6231 H       
  31 H31            0.0048    -4.0565     2.0898 H       
  32 H32           -1.3632    -4.7635     1.1761 H       
  33 H33           -0.2777    -6.8542     0.9697 H       
  34 H34            1.7201    -6.6735    -0.3244 H       
  35 H35            0.9110    -5.3401     3.3096 H       
  36 H36            0.2059    -6.9858     3.2881 H       
  37 H37            3.6467    -6.6746     1.0592 H       
  38 H38            3.1752    -5.1353     1.8429 H       
  39 H39            2.4986    -7.1885     4.6854 H       
  40 H40            3.9962    -7.1247     3.7256 H       
  41 H41            3.1009    -5.6273     4.0787 H       
@<TRIPOS>BOND
   1    1    2 1
   2    1    3 ar
   3    1    5 ar
   4    2    4 ar
   5    2   12 ar
   6    3    8 ar
   7    3   22 1
   8    4    9 ar
   9    4   23 1
  10    5    6 ar
  11    5   24 1
  12    6    7 ar
  13    6   25 1
  14    7    8 ar
  15    7   26 1
  16    8   27 1
  17    9   10 ar
  18    9   28 1
  19   10   11 ar
  20   10   13 1
  21   11   12 ar
  22   13   14 1
  23   13   15 1
  24   14   17 1
  25   14   29 1
  26   14   30 1
  27   15   16 1
  28   15   31 1
  29   15   32 1
  30   16   17 1
  31   16   18 1
  32   16   33 1
  33   17   20 1
  34   17   34 1
  35   18   19 1
  36   18   35 1
  37   18   36 1
  38   19   20 1
  39   19   21 1
  40   20   37 1
  41   20   38 1
  42   21   39 1
  43   21   40 1
  44   21   41 1

#	End of record

