#	Name: ASD08151038
#	Creating user name:	WinNT
#	Creation time:	15. 06. 2019 21:17

#	Modifying user name:	WinNT
#	Modification time:	15. 06. 2019 21:17

#	Program:	/corina/corina34_cracker 3.40 0067  02.08.2006

@<TRIPOS>MOLECULE
ASD08151038
  49   51    0    0    0
SMALL
NO_CHARGES


@<TRIPOS>ATOM
   1 C1             2.9351     3.7317     1.7860 C.3     
   2 C2             1.6111     4.4974     1.8264 C.3     
   3 N3             1.7874    -0.6946     0.0641 N.ar    
   4 C4             1.7488    -1.5829    -0.8993 C.ar    
   5 C5             2.2487    -1.3073    -2.1702 C.ar    
   6 C6             2.7965    -0.0849    -2.4367 C.ar    
   7 C7             2.8359     0.8659    -1.3993 C.ar    
   8 C8             3.3842     2.1438    -1.6008 C.ar    
   9 C9             3.4071     3.0423    -0.5761 C.ar    
  10 C10            2.8935     2.7144     0.6750 C.ar    
  11 C11            2.3477     1.4715     0.9110 C.ar    
  12 C12            2.3098     0.5192    -0.1308 C.ar    
  13 N13            1.8367     1.1560     2.1704 N.3     
  14 C14            2.5978     0.0613     2.7884 C.3     
  15 C15            2.0582    -0.2003     4.1965 C.3     
  16 N16            0.6296    -0.5355     4.1164 N.3     
  17 C17           -0.1315     0.5592     3.4984 C.3     
  18 C18            0.4082     0.8207     2.0903 C.3     
  19 C19            0.0916    -0.8677     5.4424 C.3     
  20 C20           -1.4144    -1.1148     5.3344 C.3     
  21 O21           -1.6531    -2.2383     4.4842 O.3     
  22 C22           -3.0360    -2.5560     4.3153 C.3     
  23 Cl23           4.0319     2.5773    -3.1520 Cl      
  24 N24            4.0378     4.6726     1.5474 N.3     
  25 H25            3.0904     3.2239     2.7380 H       
  26 H26            0.7856     3.7912     1.9154 H       
  27 H27            1.6069     5.1710     2.6834 H       
  28 H28            1.4975     5.0754     0.9093 H       
  29 H29            1.3187    -2.5538    -0.7024 H       
  30 H30            2.2032    -2.0595    -2.9438 H       
  31 H31            3.1890     0.1457    -3.4161 H       
  32 H32            3.8299     4.0229    -0.7376 H       
  33 H33            2.4925    -0.8406     2.1853 H       
  34 H34            3.6503     0.3384     2.8480 H       
  35 H35            2.6021    -1.0311     4.6459 H       
  36 H36            2.1883     0.6929     4.8076 H       
  37 H37           -1.1840     0.2820     3.4388 H       
  38 H38           -0.0262     1.4610     4.1015 H       
  39 H39           -0.1357     1.6515     1.6409 H       
  40 H40            0.2780    -0.0725     1.4793 H       
  41 H41            0.5812    -1.7660     5.8185 H       
  42 H42            0.2758    -0.0398     6.1270 H       
  43 H43           -1.8215    -1.3161     6.3253 H       
  44 H44           -1.8982    -0.2326     4.9152 H       
  45 H45           -3.4768    -2.7872     5.2850 H       
  46 H46           -3.5535    -1.7037     3.8749 H       
  47 H47           -3.1327    -3.4194     3.6571 H       
  48 H48            4.9291     4.2009     1.5804 H       
  49 H49            3.9169     5.1563     0.6702 H       
@<TRIPOS>BOND
   1    1    2 1
   2    1   10 1
   3    1   24 1
   4    1   25 1
   5    2   26 1
   6    2   27 1
   7    2   28 1
   8    3    4 ar
   9    3   12 ar
  10    4    5 ar
  11    4   29 1
  12    5    6 ar
  13    5   30 1
  14    6    7 ar
  15    6   31 1
  16    7    8 ar
  17    7   12 ar
  18    8    9 ar
  19    8   23 1
  20    9   10 ar
  21    9   32 1
  22   10   11 ar
  23   11   12 ar
  24   11   13 1
  25   13   14 1
  26   13   18 1
  27   14   15 1
  28   14   33 1
  29   14   34 1
  30   15   16 1
  31   15   35 1
  32   15   36 1
  33   16   17 1
  34   16   19 1
  35   17   18 1
  36   17   37 1
  37   17   38 1
  38   18   39 1
  39   18   40 1
  40   19   20 1
  41   19   41 1
  42   19   42 1
  43   20   21 1
  44   20   43 1
  45   20   44 1
  46   21   22 1
  47   22   45 1
  48   22   46 1
  49   22   47 1
  50   24   48 1
  51   24   49 1

#	End of record

