#	Name: ASD01910038
#	Creating user name:	WinNT
#	Creation time:	15. 06. 2019 19:55

#	Modifying user name:	WinNT
#	Modification time:	15. 06. 2019 19:55

#	Program:	/corina/corina34_cracker 3.40 0067  02.08.2006

@<TRIPOS>MOLECULE
ASD01910038
  51   54    0    0    0
SMALL
NO_CHARGES


@<TRIPOS>ATOM
   1 C1            -0.0167     1.3769     0.0096 C.ar    
   2 C2             0.0021    -0.0041     0.0020 C.ar    
   3 C3             1.2080    -0.6806    -0.0131 C.ar    
   4 C4             2.3987     0.0227    -0.0203 C.ar    
   5 C5             2.3866     1.4038    -0.0127 C.ar    
   6 C6             1.1772     2.0861     0.0020 C.ar    
   7 N7             1.1616     3.4868     0.0092 N.pl3   
   8 C8             0.2443     4.2805    -0.6102 C.2     
   9 C9             0.5824     5.5732    -0.3617 C.2     
  10 C10            1.7430     5.5691     0.4348 C.2     
  11 N11            2.0831     4.3171     0.6597 N.2     
  12 N12           -0.8444     3.8455    -1.3635 N.am    
  13 C13           -1.6781     4.7439    -1.9242 C.2     
  14 C14           -2.8330     4.2825    -2.7233 C.ar    
  15 C15           -3.6973     5.2109    -3.3045 C.ar    
  16 C16           -4.7779     4.7742    -4.0529 C.ar    
  17 C17           -5.0015     3.4158    -4.2248 C.ar    
  18 C18           -4.1446     2.4893    -3.6486 C.ar    
  19 C19           -3.0586     2.9173    -2.9032 C.ar    
  20 C20            2.4563     6.7685     0.9392 C.ar    
  21 C21            3.5998     6.6243     1.7223 C.ar    
  22 C22            4.2593     7.7433     2.1888 C.ar    
  23 C23            3.7871     9.0063     1.8803 C.ar    
  24 C24            2.6524     9.1554     1.1034 C.ar    
  25 C25            1.9883     8.0433     0.6268 C.ar    
  26 O26           -1.4803     5.9338    -1.7727 O.2     
  27 O27           -5.6207     5.6777    -4.6191 O.3     
  28 C28           -6.7145     5.1578    -5.3777 C.3     
  29 O29           -4.3683     1.1598    -3.8202 O.3     
  30 C30           -5.5033     0.7888    -4.6051 C.3     
  31 H31           -0.9589     1.9047     0.0169 H       
  32 H32           -0.9261    -0.5562     0.0083 H       
  33 H33            1.2201    -1.7605    -0.0190 H       
  34 H34            3.3389    -0.5085    -0.0314 H       
  35 H35            3.3168     1.9525    -0.0183 H       
  36 H36            0.0549     6.4476    -0.7129 H       
  37 H37           -1.0023     2.8961    -1.4844 H       
  38 H38           -3.5242     6.2685    -3.1709 H       
  39 H39           -5.8453     3.0787    -4.8087 H       
  40 H40           -2.3918     2.1954    -2.4553 H       
  41 H41            3.9692     5.6386     1.9640 H       
  42 H42            5.1455     7.6327     2.7961 H       
  43 H43            4.3060     9.8793     2.2478 H       
  44 H44            2.2880    10.1438     0.8656 H       
  45 H45            1.1025     8.1608     0.0203 H       
  46 H46           -7.3070     5.9829    -5.7731 H       
  47 H47           -6.3315     4.5573    -6.2028 H       
  48 H48           -7.3392     4.5368    -4.7357 H       
  49 H49           -5.5658    -0.2979    -4.6627 H       
  50 H50           -6.4090     1.1808    -4.1422 H       
  51 H51           -5.4011     1.2006    -5.6091 H       
@<TRIPOS>BOND
   1    1    2 ar
   2    1    6 ar
   3    1   31 1
   4    2    3 ar
   5    2   32 1
   6    3    4 ar
   7    3   33 1
   8    4    5 ar
   9    4   34 1
  10    5    6 ar
  11    5   35 1
  12    6    7 1
  13    7    8 1
  14    7   11 1
  15    8    9 2
  16    8   12 1
  17    9   10 1
  18    9   36 1
  19   10   11 2
  20   10   20 1
  21   12   13 am
  22   12   37 1
  23   13   14 1
  24   13   26 2
  25   14   15 ar
  26   14   19 ar
  27   15   16 ar
  28   15   38 1
  29   16   17 ar
  30   16   27 1
  31   17   18 ar
  32   17   39 1
  33   18   19 ar
  34   18   29 1
  35   19   40 1
  36   20   21 ar
  37   20   25 ar
  38   21   22 ar
  39   21   41 1
  40   22   23 ar
  41   22   42 1
  42   23   24 ar
  43   23   43 1
  44   24   25 ar
  45   24   44 1
  46   25   45 1
  47   27   28 1
  48   28   46 1
  49   28   47 1
  50   28   48 1
  51   29   30 1
  52   30   49 1
  53   30   50 1
  54   30   51 1

#	End of record

