#	Name: ASD04910205
#	Creating user name:	WinNT
#	Creation time:	15. 06. 2019 20:55

#	Modifying user name:	WinNT
#	Modification time:	15. 06. 2019 20:55

#	Program:	/corina/corina34_cracker 3.40 0067  02.08.2006

@<TRIPOS>MOLECULE
ASD04910205
  29   30    0    0    0
SMALL
NO_CHARGES


@<TRIPOS>ATOM
   1 N1            -0.0176     1.3956     0.0231 N.pl3   
   2 N2             0.1760     0.2392     0.7898 N.2     
   3 C3             1.3604    -0.2433     0.5106 C.2     
   4 C4             1.9588     0.5887    -0.4416 C.2     
   5 C5             1.0919     1.5888    -0.7248 C.2     
   6 C6             3.3274     0.4044    -1.0450 C.3     
   7 F7             3.9243    -0.7404    -0.5062 F       
   8 F8             3.2101     0.2605    -2.4316 F       
   9 F9             4.1182     1.5220    -0.7574 F       
  10 C10           -1.1626     2.2063     0.0265 C.ar    
  11 C11           -1.0387     3.5895     0.1379 C.ar    
  12 C12           -2.1731     4.3851     0.1401 C.ar    
  13 C13           -3.4239     3.8062     0.0324 C.ar    
  14 C14           -3.5473     2.4336    -0.0782 C.ar    
  15 C15           -2.4204     1.6334    -0.0870 C.ar    
  16 C16           -2.5589     0.1381    -0.2134 C.3     
  17 O17            0.1919     4.1570     0.2446 O.3     
  18 C18            0.2423     5.5808     0.3553 C.3     
  19 H19            1.8000    -1.1307     0.9414 H       
  20 H20            1.2568     2.3961    -1.4230 H       
  21 H21           -2.0801     5.4576     0.2264 H       
  22 H22           -4.3071     4.4278     0.0350 H       
  23 H23           -4.5266     1.9858    -0.1617 H       
  24 H24           -2.5525    -0.3126     0.7790 H       
  25 H25           -3.4977    -0.0988    -0.7140 H       
  26 H26           -1.7267    -0.2558    -0.7968 H       
  27 H27           -0.2119     6.0302    -0.5278 H       
  28 H28           -0.3036     5.8956     1.2447 H       
  29 H29            1.2807     5.9027     0.4334 H       
@<TRIPOS>BOND
   1    1    2 1
   2    1    5 1
   3    1   10 1
   4    2    3 2
   5    3    4 1
   6    3   19 1
   7    4    5 2
   8    4    6 1
   9    5   20 1
  10    6    7 1
  11    6    8 1
  12    6    9 1
  13   10   11 ar
  14   10   15 ar
  15   11   12 ar
  16   11   17 1
  17   12   13 ar
  18   12   21 1
  19   13   14 ar
  20   13   22 1
  21   14   15 ar
  22   14   23 1
  23   15   16 1
  24   16   24 1
  25   16   25 1
  26   16   26 1
  27   17   18 1
  28   18   27 1
  29   18   28 1
  30   18   29 1

#	End of record

