#	Name: ASD07300409
#	Creating user name:	WinNT
#	Creation time:	15. 06. 2019 21:09

#	Modifying user name:	WinNT
#	Modification time:	15. 06. 2019 21:09

#	Program:	/corina/corina34_cracker 3.40 0067  02.08.2006

@<TRIPOS>MOLECULE
ASD07300409
  31   32    0    0    0
SMALL
NO_CHARGES


@<TRIPOS>ATOM
   1 C1            -0.0168     1.3851     0.0097 C.ar    
   2 C2             0.0021    -0.0041     0.0020 C.ar    
   3 C3             1.2290    -0.6629    -0.0132 C.ar    
   4 C4             2.3854     0.0999    -0.0201 C.ar    
   5 C5             2.2851     1.4785    -0.0118 C.ar    
   6 N6             1.1077     2.0724     0.0026 N.ar    
   7 N7            -1.1920    -0.7293     0.0100 N.3     
   8 N8            -1.2031     2.0398     0.0188 N.pl3   
   9 O9            -2.2459     1.4106     0.0203 O.2     
  10 O10           -1.2265     3.2576     0.0255 O.2     
  11 C11           -1.3416    -1.5107    -1.2250 C.3     
  12 C12           -1.2742    -1.5950     1.1939 C.3     
  13 C13           -2.6630    -2.1706     1.2998 C.ar    
  14 C14           -2.9616    -3.3726     0.6860 C.ar    
  15 C15           -4.2355    -3.9006     0.7831 C.ar    
  16 C16           -5.2106    -3.2267     1.4944 C.ar    
  17 C17           -4.9117    -2.0251     2.1091 C.ar    
  18 C18           -3.6366    -1.4993     2.0156 C.ar    
  19 H19            1.2777    -1.7418    -0.0191 H       
  20 H20            3.3543    -0.3772    -0.0316 H       
  21 H21            3.1836     2.0777    -0.0168 H       
  22 H22           -0.5093    -2.2086    -1.3164 H       
  23 H23           -2.2792    -2.0655    -1.1925 H       
  24 H24           -1.3471    -0.8376    -2.0823 H       
  25 H25           -0.5511    -2.4054     1.1024 H       
  26 H26           -1.0540    -1.0107     2.0873 H       
  27 H27           -2.1998    -3.8991     0.1302 H       
  28 H28           -4.4690    -4.8394     0.3029 H       
  29 H29           -6.2060    -3.6388     1.5697 H       
  30 H30           -5.6736    -1.4985     2.6645 H       
  31 H31           -3.4021    -0.5624     2.4988 H       
@<TRIPOS>BOND
   1    1    2 ar
   2    1    6 ar
   3    1    8 1
   4    2    3 ar
   5    2    7 1
   6    3    4 ar
   7    3   19 1
   8    4    5 ar
   9    4   20 1
  10    5    6 ar
  11    5   21 1
  12    7   11 1
  13    7   12 1
  14    8    9 2
  15    8   10 2
  16   11   22 1
  17   11   23 1
  18   11   24 1
  19   12   13 1
  20   12   25 1
  21   12   26 1
  22   13   14 ar
  23   13   18 ar
  24   14   15 ar
  25   14   27 1
  26   15   16 ar
  27   15   28 1
  28   16   17 ar
  29   16   29 1
  30   17   18 ar
  31   17   30 1
  32   18   31 1

#	End of record

