#	Name: ASD01913334
#	Creating user name:	WinNT
#	Creation time:	15. 06. 2019 20:01

#	Modifying user name:	WinNT
#	Modification time:	15. 06. 2019 20:01

#	Program:	/corina/corina34_cracker 3.40 0067  02.08.2006

@<TRIPOS>MOLECULE
ASD01913334
  28   30    0    0    0
SMALL
NO_CHARGES


@<TRIPOS>ATOM
   1 C1            -0.0167     1.3769     0.0096 C.2     
   2 C2             0.0021    -0.0041     0.0020 C.2     
   3 C3             1.2502    -0.6727    -0.0135 C.2     
   4 N4             2.3635     0.0160    -0.0204 N.2     
   5 C5             2.3512     1.3569    -0.0131 C.2     
   6 N6             1.1682     2.0509     0.0019 N.pl3   
   7 C7            -1.2215    -0.7480     0.0102 C.1     
   8 C8            -2.2246    -1.3579     0.0169 C.1     
   9 C9            -3.4481    -2.1019     0.0250 C.ar    
  10 C10           -4.6413    -4.1790     0.0252 C.ar    
  11 C11           -5.8412    -2.2053     0.0421 C.ar    
  12 C12           -4.6888    -1.4490     0.0349 C.ar    
  13 C13            3.3707     2.2996    -0.0173 C.2     
  14 C14            2.7825     3.5560    -0.0047 C.2     
  15 N15            1.4763     3.4163     0.0068 N.2     
  16 C16            3.5224     4.8689    -0.0042 C.3     
  17 C17           -3.4395    -3.5039     0.0174 C.ar    
  18 N18           -5.7871    -3.5240     0.0397 N.ar    
  19 H19           -0.9539     1.9135     0.0170 H       
  20 H20            1.2837    -1.7522    -0.0192 H       
  21 H21           -4.6453    -5.2590     0.0239 H       
  22 H22           -6.8019    -1.7118     0.0497 H       
  23 H23           -4.7408    -0.3702     0.0373 H       
  24 H24            4.4305     2.0921    -0.0282 H       
  25 H25            3.6911     5.1912    -1.0317 H       
  26 H26            2.9303     5.6194     0.5195 H       
  27 H27            4.4809     4.7456     0.5000 H       
  28 H28           -2.5058    -4.0464     0.0052 H       
@<TRIPOS>BOND
   1    1    2 2
   2    1    6 1
   3    1   19 1
   4    2    3 1
   5    2    7 1
   6    3    4 2
   7    3   20 1
   8    4    5 1
   9    5    6 1
  10    5   13 2
  11    6   15 1
  12    7    8 3
  13    8    9 1
  14    9   17 ar
  15    9   12 ar
  16   10   18 ar
  17   10   17 ar
  18   10   21 1
  19   11   12 ar
  20   11   18 ar
  21   11   22 1
  22   12   23 1
  23   13   14 1
  24   13   24 1
  25   14   15 2
  26   14   16 1
  27   16   25 1
  28   16   26 1
  29   16   27 1
  30   17   28 1

#	End of record

