#	Name: ASD01948330
#	Creating user name:	WinNT
#	Creation time:	15. 06. 2019 20:14

#	Modifying user name:	WinNT
#	Modification time:	15. 06. 2019 20:14

#	Program:	/corina/corina34_cracker 3.40 0067  02.08.2006

@<TRIPOS>MOLECULE
ASD01948330
  50   52    0    0    0
SMALL
NO_CHARGES


@<TRIPOS>ATOM
   1 C1             0.2616     1.7535    -0.3962 C.2     
   2 N2             0.3426     0.4441    -0.7710 N.am    
   3 C3             1.5332    -0.1696    -0.9001 C.2     
   4 C4             2.6503     1.8607    -0.2696 C.2     
   5 C5             1.3804     2.4726    -0.1438 C.2     
   6 C6             3.3331     4.0315    -1.8857 C.ar    
   7 C7             4.1106     3.7110    -0.7798 C.ar    
   8 N8             3.8080     2.5813    -0.0147 N.pl3   
   9 C9             3.6349     5.1480    -2.6398 C.ar    
  10 C10            4.7106     5.9471    -2.2954 C.ar    
  11 C11            5.4863     5.6310    -1.1947 C.ar    
  12 C12            5.1896     4.5155    -0.4363 C.ar    
  13 N13            1.2814     3.8197     0.2407 N.am    
  14 S14           -0.1917     4.5761     0.2354 S.o2    
  15 N15           -0.6197     4.8047    -1.3479 N.am    
  16 O16            1.5794    -1.3435    -1.2367 O.2     
  17 C17           -0.8871    -0.3063    -1.0368 C.3     
  18 C18            6.0355     4.1715     0.7624 C.3     
  19 I19            5.1650     7.6399    -3.4431 I       
  20 O20           -1.1223     3.6461     0.7724 O.2     
  21 O21            0.0194     5.8696     0.7847 O.2     
  22 C22            2.7189     0.5313    -0.6507 C.2     
  23 F23            3.9158    -0.0821    -0.7794 F       
  24 C24           -1.5826     3.9021    -1.9840 C.3     
  25 C25           -0.0355     5.9093    -2.1125 C.3     
  26 C26           -1.0852    -0.5007    -2.5529 C.3     
  27 C27           -1.0657    -2.0024    -2.7320 C.2     
  28 C28           -0.8923    -2.5715    -1.5634 C.2     
  29 N29           -0.7776    -1.6776    -0.5170 N.pl3   
  30 H30           -0.7066     2.2231    -0.3041 H       
  31 H31            2.4962     3.4054    -2.1579 H       
  32 H32            4.4075     2.3010     0.6945 H       
  33 H33            3.0308     5.3977    -3.4996 H       
  34 H34            6.3256     6.2565    -0.9286 H       
  35 H35            2.0759     4.3070     0.5094 H       
  36 H36           -1.7467     0.2029    -0.6009 H       
  37 H37            5.6256     4.6573     1.6479 H       
  38 H38            6.0367     3.0913     0.9084 H       
  39 H39            7.0562     4.5171     0.5981 H       
  40 H40           -2.5914     4.2908    -1.8453 H       
  41 H41           -1.3642     3.8304    -3.0495 H       
  42 H42           -1.5084     2.9137    -1.5306 H       
  43 H43            0.5850     6.5181    -1.4550 H       
  44 H44            0.5761     5.5083    -2.9207 H       
  45 H45           -0.8331     6.5235    -2.5307 H       
  46 H46           -2.0441    -0.0902    -2.8691 H       
  47 H47           -0.2685    -0.0387    -3.1076 H       
  48 H48           -1.1775    -2.5227    -3.6718 H       
  49 H49           -0.8440    -3.6423    -1.4311 H       
  50 H50           -0.6459    -1.9165     0.4138 H       
@<TRIPOS>BOND
   1    1    2 1
   2    1    5 2
   3    1   30 1
   4    2    3 am
   5    2   17 1
   6    3   22 1
   7    3   16 2
   8    4    5 1
   9    4    8 1
  10    4   22 2
  11    5   13 1
  12    6    7 ar
  13    6    9 ar
  14    6   31 1
  15    7    8 1
  16    7   12 ar
  17    8   32 1
  18    9   10 ar
  19    9   33 1
  20   10   11 ar
  21   10   19 1
  22   11   12 ar
  23   11   34 1
  24   12   18 1
  25   13   14 am
  26   13   35 1
  27   14   15 am
  28   14   20 2
  29   14   21 2
  30   15   24 1
  31   15   25 1
  32   17   26 1
  33   17   29 1
  34   17   36 1
  35   18   37 1
  36   18   38 1
  37   18   39 1
  38   22   23 1
  39   24   40 1
  40   24   41 1
  41   24   42 1
  42   25   43 1
  43   25   44 1
  44   25   45 1
  45   26   27 1
  46   26   46 1
  47   26   47 1
  48   27   28 2
  49   27   48 1
  50   28   29 1
  51   28   49 1
  52   29   50 1

#	End of record

