#	Name: ASD03430674
#	Creating user name:	WinNT
#	Creation time:	15. 06. 2019 20:41

#	Modifying user name:	WinNT
#	Modification time:	15. 06. 2019 20:41

#	Program:	/corina/corina34_cracker 3.40 0067  02.08.2006

@<TRIPOS>MOLECULE
ASD03430674
  52   57    0    0    0
SMALL
NO_CHARGES


@<TRIPOS>ATOM
   1 C1             2.6431     0.4009    -0.0347 C.ar    
   2 C2             2.0789    -0.8612    -0.0647 C.ar    
   3 C3             2.8721    -1.9689    -0.2724 C.ar    
   4 C4             4.2468    -1.8332    -0.4451 C.ar    
   5 C5             4.8057    -0.5587    -0.4181 C.ar    
   6 C6             4.0072     0.5483    -0.2140 C.ar    
   7 O7             4.8460    -3.0460    -0.6095 O.3     
   8 C8             2.5700    -3.4395    -0.3788 C.3     
   9 C9             3.8537    -4.0191    -0.9890 C.3     
  10 C10            0.9862    -4.6132     0.8192 C.ar    
  11 C11            2.2557    -4.0556     0.9522 C.ar    
  12 C12            1.3692    -3.7132    -1.2378 C.2     
  13 N13            0.4958    -4.3960    -0.4708 N.am    
  14 O14            1.2150    -3.3841    -2.3949 O.2     
  15 C15            2.9404    -4.1481     2.1430 C.ar    
  16 C16            2.3688    -4.7988     3.2226 C.ar    
  17 C17            1.1087    -5.3549     3.1021 C.ar    
  18 C18            0.4184    -5.2651     1.9108 C.ar    
  19 C19           -0.8146    -4.8569    -0.9359 C.3     
  20 Br20           4.7804     2.2737    -0.1797 Br      
  21 C21           -1.8979    -4.1849    -0.1321 C.ar    
  22 C22           -0.9813    -4.5094    -2.3928 C.ar    
  23 C23           -3.0405    -4.8844     0.2087 C.ar    
  24 C24           -1.7464    -2.8709     0.2693 C.ar    
  25 C25           -2.7400    -2.2545     1.0067 C.ar    
  26 C26           -3.8853    -2.9520     1.3422 C.ar    
  27 C27           -4.0341    -4.2680     0.9460 C.ar    
  28 C28           -0.9472    -5.5066    -3.3495 C.ar    
  29 C29           -1.1741    -3.1941    -2.7719 C.ar    
  30 C30           -1.3270    -2.8754    -4.1083 C.ar    
  31 C31           -1.2867    -3.8718    -5.0656 C.ar    
  32 C32           -1.1000    -5.1878    -4.6859 C.ar    
  33 H33            2.0205     1.2690     0.1237 H       
  34 H34            1.0145    -0.9792     0.0752 H       
  35 H35            5.8695    -0.4354    -0.5575 H       
  36 H36            3.7712    -4.0850    -2.0739 H       
  37 H37            4.0820    -4.9934    -0.5571 H       
  38 H38            3.9245    -3.7129     2.2347 H       
  39 H39            2.9059    -4.8722     4.1567 H       
  40 H40            0.6626    -5.8625     3.9446 H       
  41 H41           -0.5656    -5.7018     1.8247 H       
  42 H42           -0.8856    -5.9372    -0.8096 H       
  43 H43           -3.1570    -5.9123    -0.1014 H       
  44 H44           -0.8516    -2.3259     0.0072 H       
  45 H45           -2.6213    -1.2280     1.3209 H       
  46 H46           -4.6614    -2.4706     1.9186 H       
  47 H47           -4.9289    -4.8130     1.2082 H       
  48 H48           -0.8007    -6.5347    -3.0529 H       
  49 H49           -1.2055    -2.4156    -2.0241 H       
  50 H50           -1.4782    -1.8478    -4.4045 H       
  51 H51           -1.4065    -3.6228    -6.1096 H       
  52 H52           -1.0686    -5.9664    -5.4337 H       
@<TRIPOS>BOND
   1    1    2 ar
   2    1    6 ar
   3    1   33 1
   4    2    3 ar
   5    2   34 1
   6    3    4 ar
   7    3    8 1
   8    4    5 ar
   9    4    7 1
  10    5    6 ar
  11    5   35 1
  12    6   20 1
  13    7    9 1
  14    8    9 1
  15    8   11 1
  16    8   12 1
  17    9   36 1
  18    9   37 1
  19   10   11 ar
  20   10   13 1
  21   10   18 ar
  22   11   15 ar
  23   12   13 am
  24   12   14 2
  25   13   19 1
  26   15   16 ar
  27   15   38 1
  28   16   17 ar
  29   16   39 1
  30   17   18 ar
  31   17   40 1
  32   18   41 1
  33   19   21 1
  34   19   22 1
  35   19   42 1
  36   21   23 ar
  37   21   24 ar
  38   22   28 ar
  39   22   29 ar
  40   23   27 ar
  41   23   43 1
  42   24   25 ar
  43   24   44 1
  44   25   26 ar
  45   25   45 1
  46   26   27 ar
  47   26   46 1
  48   27   47 1
  49   28   32 ar
  50   28   48 1
  51   29   30 ar
  52   29   49 1
  53   30   31 ar
  54   30   50 1
  55   31   32 ar
  56   31   51 1
  57   32   52 1

#	End of record

