#	Name: ASD00310403
#	Creating user name:	WinNT
#	Creation time:	15. 06. 2019 18:34

#	Modifying user name:	WinNT
#	Modification time:	15. 06. 2019 18:34

#	Program:	/corina/corina34_cracker 3.40 0067  02.08.2006

@<TRIPOS>MOLECULE
ASD00310403
  43   46    0    0    0
SMALL
NO_CHARGES


@<TRIPOS>ATOM
   1 N1            -0.0163     1.3506     0.0095 N.pl3   
   2 C2             0.0021    -0.0041     0.0020 C.2     
   3 C3             1.2919    -0.4478    -0.0127 C.2     
   4 C4             2.1470     0.7550    -0.0144 C.ar    
   5 C5             3.5245     0.9596    -0.0264 C.ar    
   6 C6             4.0256     2.2573    -0.0243 C.ar    
   7 C7             3.1464     3.3468    -0.0100 C.ar    
   8 C8             1.7843     3.1449     0.0019 C.ar    
   9 C9             1.2693     1.8507    -0.0001 C.ar    
  10 C10            1.7405    -1.8448    -0.0245 C.2     
  11 O11            2.9290    -2.1016    -0.0367 O.2     
  12 O12            0.8348    -2.8438    -0.0217 O.3     
  13 C13            5.4910     2.4866    -0.0365 C.ar    
  14 C14            6.0932     3.1038    -1.1314 C.ar    
  15 C15            7.4570     3.3151    -1.1372 C.ar    
  16 C16            8.2261     2.9152    -0.0592 C.ar    
  17 C17            7.6338     2.3018     1.0300 C.ar    
  18 C18            6.2700     2.0910     1.0493 C.ar    
  19 C19           11.6256     4.2059     1.1367 C.3     
  20 C20           10.1040     4.0393     1.1120 C.3     
  21 C21            9.7149     3.1483    -0.0717 C.3     
  22 C22           10.4446     1.8071     0.0516 C.3     
  23 C23           11.9530     2.0598     0.1173 C.3     
  24 O24           12.2429     2.9198     1.2212 O.3     
  25 F25            3.6379     4.6052    -0.0075 F       
  26 F26            4.3685    -0.0952    -0.0397 F       
  27 H27           -0.8206     1.8928     0.0164 H       
  28 H28           -0.8728    -0.6373     0.0070 H       
  29 H29            1.1140     3.9917     0.0132 H       
  30 H30            1.1782    -3.7477    -0.0298 H       
  31 H31            5.4938     3.4158    -1.9739 H       
  32 H32            7.9248     3.7933    -1.9851 H       
  33 H33            8.2391     1.9912     1.8687 H       
  34 H34            5.8079     1.6163     1.9022 H       
  35 H35           11.9514     4.7063     0.2249 H       
  36 H36           11.9118     4.8039     2.0019 H       
  37 H37            9.7731     3.5756     2.0412 H       
  38 H38            9.6324     5.0160     1.0031 H       
  39 H39            9.9999     3.6356    -1.0041 H       
  40 H40           10.1206     1.2982     0.9595 H       
  41 H41           10.2165     1.1873    -0.8156 H       
  42 H42           12.4751     1.1119     0.2481 H       
  43 H43           12.2831     2.5322    -0.8079 H       
@<TRIPOS>BOND
   1    1    2 1
   2    1    9 1
   3    1   27 1
   4    2    3 2
   5    2   28 1
   6    3    4 1
   7    3   10 1
   8    4    5 ar
   9    4    9 ar
  10    5    6 ar
  11    5   26 1
  12    6    7 ar
  13    6   13 1
  14    7    8 ar
  15    7   25 1
  16    8    9 ar
  17    8   29 1
  18   10   11 2
  19   10   12 1
  20   12   30 1
  21   13   14 ar
  22   13   18 ar
  23   14   15 ar
  24   14   31 1
  25   15   16 ar
  26   15   32 1
  27   16   17 ar
  28   16   21 1
  29   17   18 ar
  30   17   33 1
  31   18   34 1
  32   19   20 1
  33   19   24 1
  34   19   35 1
  35   19   36 1
  36   20   21 1
  37   20   37 1
  38   20   38 1
  39   21   22 1
  40   21   39 1
  41   22   23 1
  42   22   40 1
  43   22   41 1
  44   23   24 1
  45   23   42 1
  46   23   43 1

#	End of record

