#	Name: ASD01885632
#	Creating user name:	WinNT
#	Creation time:	15. 06. 2019 19:49

#	Modifying user name:	WinNT
#	Modification time:	15. 06. 2019 19:49

#	Program:	/corina/corina34_cracker 3.40 0067  02.08.2006

@<TRIPOS>MOLECULE
ASD01885632
  35   37    0    0    0
SMALL
NO_CHARGES


@<TRIPOS>ATOM
   1 C1            -0.0171     1.4134     0.0098 C.ar    
   2 C2             0.0021    -0.0041     0.0020 C.ar    
   3 C3            -1.2282    -0.7097     0.0099 C.ar    
   4 C4            -2.4026     0.0318     0.0251 C.ar    
   5 C5            -2.3350     1.4291     0.0320 C.ar    
   6 N6            -1.1794     2.0668     0.0299 N.ar    
   7 C7             1.2051     2.1127     0.0019 C.ar    
   8 C8             2.3774     1.4226    -0.0130 C.ar    
   9 C9             2.3912     0.0292    -0.0205 C.ar    
  10 C10            1.2283    -0.6812    -0.0128 C.ar    
  11 C11           -1.2596    -2.1889     0.0017 C.ar    
  12 C12           -0.7529    -2.9068     1.0889 C.ar    
  13 C13           -0.7851    -4.2874     1.0764 C.ar    
  14 C14           -1.3196    -4.9605    -0.0135 C.ar    
  15 C15           -1.8240    -4.2491    -1.0955 C.ar    
  16 C16           -1.8006    -2.8714    -1.0890 C.ar    
  17 C17           -3.5933     2.2134     0.0482 C.2     
  18 N18           -3.5477     3.5604     0.0551 N.am    
  19 O19           -4.6654     1.6418     0.0554 O.2     
  20 O20           -1.3493    -6.3183    -0.0228 O.3     
  21 F21           -0.2323    -2.2514     2.1494 F       
  22 C22           -1.9131    -6.9470    -1.1755 C.3     
  23 H23           -3.3606    -0.4666     0.0312 H       
  24 H24            1.2118     3.1927     0.0072 H       
  25 H25            3.3123     1.9633    -0.0193 H       
  26 H26            3.3356    -0.4945    -0.0327 H       
  27 H27            1.2520    -1.7609    -0.0185 H       
  28 H28           -0.3938    -4.8438     1.9152 H       
  29 H29           -2.2389    -4.7770    -1.9413 H       
  30 H30           -2.1931    -2.3203    -1.9308 H       
  31 H31           -2.6918     4.0168     0.0494 H       
  32 H32           -4.3709     4.0735     0.0657 H       
  33 H33           -2.9497    -6.6306    -1.2916 H       
  34 H34           -1.3445    -6.6605    -2.0603 H       
  35 H35           -1.8751    -8.0296    -1.0541 H       
@<TRIPOS>BOND
   1    1    2 ar
   2    1    7 ar
   3    1    6 ar
   4    2    3 ar
   5    2   10 ar
   6    3    4 ar
   7    3   11 1
   8    4    5 ar
   9    4   23 1
  10    5    6 ar
  11    5   17 1
  12    7    8 ar
  13    7   24 1
  14    8    9 ar
  15    8   25 1
  16    9   10 ar
  17    9   26 1
  18   10   27 1
  19   11   12 ar
  20   11   16 ar
  21   12   13 ar
  22   12   21 1
  23   13   14 ar
  24   13   28 1
  25   14   15 ar
  26   14   20 1
  27   15   16 ar
  28   15   29 1
  29   16   30 1
  30   17   18 am
  31   17   19 2
  32   18   31 1
  33   18   32 1
  34   20   22 1
  35   22   33 1
  36   22   34 1
  37   22   35 1

#	End of record

