#	Name: ASD06600074
#	Creating user name:	WinNT
#	Creation time:	15. 06. 2019 21:07

#	Modifying user name:	WinNT
#	Modification time:	15. 06. 2019 21:07

#	Program:	/corina/corina34_cracker 3.40 0067  02.08.2006

@<TRIPOS>MOLECULE
ASD06600074
 346  346    0    0    0
SMALL
NO_CHARGES


@<TRIPOS>ATOM
   1 C1            -4.3334    -1.9336   -14.4910 C.2     
   2 O2            -4.4263    -3.1151   -14.2336 O.2     
   3 N3            -1.9536    -2.3192   -14.7953 N.3     
   4 C4            -3.0549    -1.3873   -15.0724 C.3     
   5 C5            -3.2130    -1.2200   -16.5849 C.3     
   6 C6            -1.9623    -0.5502   -17.1575 C.3     
   7 C7            -2.1204    -0.3828   -18.6701 C.3     
   8 N8            -0.9228     0.2586   -19.2183 N.pl3   
   9 C9            -0.8356     0.5133   -20.5661 C.2     
  10 N10           -1.7664     0.0876   -21.3706 N.2     
  11 N11            0.2399     1.2211   -21.0671 N.am    
  12 C12           -7.7698    -0.7508   -14.0972 C.2     
  13 O13           -7.5688     0.2321   -14.7786 O.2     
  14 N14           -5.3755    -1.1101   -14.2622 N.am    
  15 C15           -6.6205    -1.6422   -13.7027 C.3     
  16 C16           -6.5138    -1.6918   -12.1772 C.3     
  17 C17           -5.4288    -2.6923   -11.7741 C.3     
  18 C18           -5.2353    -2.6511   -10.2569 C.3     
  19 C19           -5.8516    -4.1008   -12.1963 C.3     
  20 C20          -11.2517    -0.3205   -13.0703 C.2     
  21 O21          -11.1244    -1.0709   -12.1261 O.2     
  22 N22           -9.0211    -1.0460   -13.6927 N.am    
  23 C23          -10.1384    -0.1795   -14.0762 C.3     
  24 C24          -10.6474    -0.5862   -15.4606 C.3     
  25 C25           -9.5570    -0.3253   -16.5017 C.3     
  26 C26          -10.0660    -0.7320   -17.8861 C.3     
  27 N27           -9.0219    -0.4822   -18.8830 N.pl3   
  28 C28           -9.2521    -0.7725   -20.2070 C.2     
  29 N29          -10.3993    -1.2699   -20.5752 N.2     
  30 N30           -8.2723    -0.5381   -21.1425 N.pl3   
  31 C31          -14.7833     0.6062   -12.8920 C.2     
  32 O32          -14.8118     0.9415   -14.0572 O.2     
  33 N33          -12.3888     0.3873   -13.2200 N.am    
  34 C34          -13.4711     0.2502   -12.2422 C.3     
  35 C35          -13.2146     1.1901   -11.0625 C.3     
  36 C36          -11.9467     0.7513   -10.3271 C.3     
  37 C37          -11.6940     1.6770    -9.1651 C.2     
  38 O38          -12.4533     2.5971    -8.9466 O.2     
  39 N39          -10.6243     1.4824    -8.3687 N.am    
  40 C40          -18.1762     1.3546   -11.7556 C.2     
  41 O41          -17.8389     1.3875   -10.5911 O.2     
  42 N42          -15.9253     0.5521   -12.1783 N.am    
  43 C43          -17.2010     0.8982   -12.8100 C.3     
  44 C44          -17.7642    -0.3297   -13.5283 C.3     
  45 C45          -21.7795     1.9410   -11.5671 C.2     
  46 O46          -21.9722     1.4552   -12.6616 O.2     
  47 N47          -19.4233     1.7262   -12.1067 N.am    
  48 C48          -20.3713     2.1698   -11.0817 C.3     
  49 C49          -20.1630     3.6601   -10.8051 C.3     
  50 C50          -18.7767     3.8767   -10.1952 C.3     
  51 C51          -18.5715     5.3447    -9.9228 C.2     
  52 O52          -19.4478     6.1393   -10.1902 O.2     
  53 N53          -17.4142     5.7744    -9.3820 N.am    
  54 C54          -25.1270     3.0094   -10.5594 C.2     
  55 O55          -24.6916     3.7986    -9.7479 O.2     
  56 N56          -22.8247     2.2762   -10.7851 N.am    
  57 C57          -24.1937     2.0538   -11.2570 C.3     
  58 C58          -24.6123     0.6150   -10.9479 C.3     
  59 C59          -23.7440    -0.3531   -11.7539 C.3     
  60 C60          -24.1625    -1.7919   -11.4447 C.3     
  61 N61          -23.3311    -2.7189   -12.2165 N.pl3   
  62 C62          -23.5254    -4.0751   -12.1017 C.2     
  63 N63          -24.4493    -4.5361   -11.3062 N.2     
  64 N64          -22.7451    -4.9450   -12.8260 N.pl3   
  65 C65          -28.7437     3.3360   -10.1399 C.2     
  66 O66          -29.0569     2.4850   -10.9453 O.2     
  67 N67          -26.4456     2.9871   -10.8372 N.am    
  68 C68          -27.3530     3.9161   -10.1590 C.3     
  69 C69          -27.3676     5.2514   -10.9059 C.3     
  70 C70          -25.9840     5.8989   -10.8199 C.3     
  71 C71          -25.9986     7.2342   -11.5667 C.3     
  72 N72          -24.6739     7.8543   -11.4843 N.pl3   
  73 C73          -24.4449     9.0692   -12.0858 C.2     
  74 N74          -25.4065     9.6693   -12.7293 N.2     
  75 N75          -23.2017     9.6511   -12.0085 N.pl3   
  76 C76          -31.7528     3.7273   -10.4413 C.2     
  77 O77          -31.1391     4.2753   -11.3324 O.2     
  78 N78          -29.6395     3.7629    -9.2279 N.am    
  79 C79          -31.0514     3.3589    -9.1593 C.3     
  80 C80          -31.6882     4.1177    -7.9760 C.3     
  81 C81          -30.7428     5.3345    -7.7944 C.3     
  82 C82          -29.3642     4.7074    -8.1299 C.3     
  83 C83          -35.2178     3.9741   -11.5796 C.2     
  84 O84          -35.6557     3.8109   -10.4605 O.2     
  85 N85          -33.0619     3.4478   -10.5976 N.am    
  86 C86          -33.7437     3.8059   -11.8439 C.3     
  87 C87          -33.5340     2.6968   -12.8768 C.3     
  88 C88          -32.0498     2.6101   -13.2378 C.3     
  89 C89          -31.8432     1.5177   -14.2552 C.2     
  90 O90          -32.7900     0.8721   -14.6524 O.2     
  91 N91          -30.6065     1.2583   -14.7237 N.am    
  92 C92          -38.2519     4.2266   -13.6029 C.2     
  93 O93          -37.6614     3.9447   -14.6241 O.2     
  94 N94          -36.0494     4.3059   -12.5870 N.am    
  95 C95          -37.4824     4.4694   -12.3301 C.3     
  96 C96          -37.7527     5.8913   -11.8342 C.3     
  97 C97          -37.0725     6.0967   -10.4791 C.3     
  98 C98          -37.3428     7.5187    -9.9832 C.3     
  99 N99          -36.6915     7.7154    -8.6857 N.pl3   
 100 C100         -36.7961     8.9248    -8.0404 C.2     
 101 N101         -37.4747     9.8965    -8.5830 N.2     
 102 N102         -36.1850     9.1094    -6.8228 N.pl3   
 103 C103         -41.6621     4.8147   -14.7807 C.2     
 104 O104         -41.9484     5.4665   -13.7989 O.2     
 105 N105         -39.5962     4.3227   -13.6065 N.am    
 106 C106         -40.3442     4.0866   -14.8438 C.3     
 107 C107         -40.5974     2.5867   -15.0084 C.3     
 108 C108         -39.2633     1.8619   -15.1974 C.3     
 109 C109         -39.5128     0.3846   -15.3595 C.2     
 110 O110         -40.6461    -0.0462   -15.3271 O.2     
 111 N111         -38.4765    -0.4579   -15.5405 N.am    
 112 C112         -44.7980     4.7678   -16.6589 C.2     
 113 O113         -44.4686     3.7875   -17.2925 O.2     
 114 N114         -42.5227     4.7414   -15.8154 N.am    
 115 C115         -43.8039     5.4491   -15.7541 C.3     
 116 C116         -43.6091     6.8969   -16.2090 C.3     
 117 C117         -42.6971     7.6242   -15.2190 C.3     
 118 C118         -42.5022     9.0720   -15.6739 C.3     
 119 C119         -41.5903     9.7993   -14.6838 C.3     
 120 N120         -41.4032    11.1894   -15.1206 N.3     
 121 C121         -48.0722     5.5759   -18.0693 C.2     
 122 O122         -48.0204     6.7223   -17.6768 O.2     
 123 N123         -46.0530     5.2478   -16.7639 N.am    
 124 C124         -47.0193     4.5854   -17.6435 C.3     
 125 C125         -47.6817     3.4279   -16.8935 C.3     
 126 C126         -51.3613     5.4158   -19.6564 C.2     
 127 O127         -51.3543     4.2068   -19.7525 O.2     
 128 N128         -49.0713     5.1879   -18.8864 N.am    
 129 C129         -50.0948     6.1508   -19.3005 C.3     
 130 C130         -49.5980     6.9307   -20.5194 C.3     
 131 C131         -48.3911     7.7831   -20.1223 C.3     
 132 C132         -49.1896     5.9501   -21.6205 C.3     
 133 C133         -53.6793     5.2650   -21.8179 C.2     
 134 O134         -52.7491     5.7099   -22.4477 O.2     
 135 N135         -52.5019     6.1020   -19.8680 N.am    
 136 C136         -53.7066     5.3997   -20.3172 C.3     
 137 C137         -54.9457     6.1938   -19.8989 C.3     
 138 C138         -55.0405     6.2243   -18.3722 C.3     
 139 C139         -56.2795     7.0184   -17.9538 C.3     
 140 N140         -56.3703     7.0475   -16.4919 N.pl3   
 141 C141         -57.4096     7.7083   -15.8808 C.2     
 142 N142         -57.4903     7.7342   -14.5801 N.2     
 143 N143         -58.3636     8.3417   -16.6415 N.pl3   
 144 O144         -54.6885     4.6507   -22.4551 O.3     
 145 C145           1.1610     1.7321   -20.2263 C.2     
 146 O146           1.1060     1.4806   -19.0415 O.2     
 147 C147          16.3851    11.9942   -16.4706 C.3     
 148 C148          15.2702    11.0966   -15.9300 C.3     
 149 C149          14.3671    10.6545   -17.0832 C.3     
 150 C150          13.2522     9.7569   -16.5426 C.3     
 151 C151          12.3491     9.3147   -17.6958 C.3     
 152 C152          11.2342     8.4172   -17.1552 C.3     
 153 C153          10.3311     7.9750   -18.3084 C.3     
 154 C154           9.2162     7.0775   -17.7678 C.3     
 155 C155           8.3131     6.6353   -18.9210 C.3     
 156 C156           7.1982     5.7378   -18.3804 C.3     
 157 C157           6.2951     5.2956   -19.5336 C.3     
 158 C158           5.1802     4.3981   -18.9930 C.3     
 159 C159           4.2772     3.9559   -20.1462 C.3     
 160 C160           3.1622     3.0584   -19.6056 C.3     
 161 C161           2.2592     2.6162   -20.7588 C.3     
 162 H162          -1.7868    -2.3971   -13.8033 H       
 163 H163          -2.1341    -3.2240   -15.2038 H       
 164 H164          -2.8346    -0.4200   -14.6209 H       
 165 H165          -3.3450    -2.1984   -17.0469 H       
 166 H166          -4.0848    -0.5996   -16.7927 H       
 167 H167          -1.8303     0.4282   -16.6955 H       
 168 H168          -1.0905    -1.1706   -16.9498 H       
 169 H169          -2.2524    -1.3612   -19.1320 H       
 170 H170          -2.9922     0.2376   -18.8778 H       
 171 H171          -0.1914     0.5035   -18.6301 H       
 172 H172          -1.7434     0.3290   -22.3098 H       
 173 H173           0.3321     1.3503   -22.0241 H       
 174 H174          -5.3012    -0.1651   -14.4681 H       
 175 H175          -6.7915    -2.6474   -14.0878 H       
 176 H176          -6.2549    -0.7029   -11.7988 H       
 177 H177          -7.4697    -2.0032   -11.7561 H       
 178 H178          -4.4924    -2.4309   -12.2670 H       
 179 H179          -6.1717    -2.9124    -9.7640 H       
 180 H180          -4.4623    -3.3639    -9.9698 H       
 181 H181          -4.9341    -1.6476    -9.9562 H       
 182 H182          -5.0785    -4.8136   -11.9091 H       
 183 H183          -6.7880    -4.3621   -11.7034 H       
 184 H184          -5.9894    -4.1301   -13.2771 H       
 185 H185          -9.1819    -1.8321   -13.1477 H       
 186 H186          -9.8019     0.8569   -14.1028 H       
 187 H187         -10.9007    -1.6463   -15.4575 H       
 188 H188         -11.5334    -0.0016   -15.7081 H       
 189 H189          -9.3037     0.7348   -16.5047 H       
 190 H190          -8.6710    -0.9099   -16.2542 H       
 191 H191         -10.3193    -1.7922   -17.8831 H       
 192 H192         -10.9520    -0.1474   -18.1336 H       
 193 H193          -8.1682    -0.1121   -18.6089 H       
 194 H194         -10.5617    -1.4747   -21.5093 H       
 195 H195          -7.4187    -0.1679   -20.8684 H       
 196 H196          -8.4348    -0.7429   -22.0766 H       
 197 H197         -12.4907     0.9874   -13.9752 H       
 198 H198         -13.5099    -0.7789   -11.8851 H       
 199 H199         -13.0874     2.2083   -11.4301 H       
 200 H200         -14.0623     1.1540   -10.3782 H       
 201 H201         -12.0738    -0.2670    -9.9595 H       
 202 H202         -11.0989     0.7873   -11.0113 H       
 203 H203         -10.0170     0.7465    -8.5434 H       
 204 H204         -10.4617     2.0783    -7.6208 H       
 205 H205         -15.9026     0.2840   -11.2464 H       
 206 H206         -17.0436     1.7005   -13.5310 H       
 207 H207         -18.7133    -0.0722   -13.9984 H       
 208 H208         -17.0588    -0.6598   -14.2910 H       
 209 H209         -17.9216    -1.1320   -12.8074 H       
 210 H210         -19.6931     1.6999   -13.0381 H       
 211 H211         -20.2065     1.6037   -10.1650 H       
 212 H212         -20.2402     4.2172   -11.7389 H       
 213 H213         -20.9250     4.0105   -10.1090 H       
 214 H214         -18.6994     3.3197    -9.2615 H       
 215 H215         -18.0146     3.5264   -10.8914 H       
 216 H216         -16.7133     5.1388    -9.1682 H       
 217 H217         -17.2821     6.7192    -9.2067 H       
 218 H218         -22.6706     2.6648    -9.9098 H       
 219 H219         -24.2389     2.2222   -12.3330 H       
 220 H220         -24.4823     0.4196    -9.8834 H       
 221 H221         -25.6590     0.4752   -11.2179 H       
 222 H222         -23.8739    -0.1576   -12.8183 H       
 223 H223         -22.6972    -0.2132   -11.4839 H       
 224 H224         -24.0326    -1.9873   -10.3803 H       
 225 H225         -25.2093    -1.9317   -11.7147 H       
 226 H226         -22.6435    -2.3758   -12.8085 H       
 227 H227         -24.5864    -5.4929   -11.2252 H       
 228 H228         -22.0576    -4.6019   -13.4180 H       
 229 H229         -22.8822    -5.9019   -12.7450 H       
 230 H230         -26.7939     2.3560   -11.4863 H       
 231 H231         -27.0118     4.0756    -9.1362 H       
 232 H232         -27.6242     5.0802   -11.9513 H       
 233 H233         -28.1069     5.9125   -10.4538 H       
 234 H234         -25.7273     6.0701    -9.7744 H       
 235 H235         -25.2447     5.2378   -11.2720 H       
 236 H236         -26.2553     7.0630   -12.6121 H       
 237 H237         -26.7380     7.8953   -11.1146 H       
 238 H238         -23.9582     7.4077   -11.0055 H       
 239 H239         -25.2450    10.5265   -13.1536 H       
 240 H240         -22.4861     9.2045   -11.5296 H       
 241 H241         -23.0402    10.5083   -12.4329 H       
 242 H242         -31.1218     2.2838    -8.9942 H       
 243 H243         -32.6966     4.4469    -8.2267 H       
 244 H244         -31.6955     3.4978    -7.0794 H       
 245 H245         -30.9936     6.1320    -8.4938 H       
 246 H246         -30.7655     5.6969    -6.7666 H       
 247 H247         -28.9652     4.1776    -7.2649 H       
 248 H248         -28.6671     5.4782    -8.4585 H       
 249 H249         -33.5527     3.0095    -9.8849 H       
 250 H250         -33.3341     4.7408   -12.2264 H       
 251 H251         -33.8627     1.7449   -12.4596 H       
 252 H252         -34.1134     2.9203   -13.7726 H       
 253 H253         -31.7211     3.5620   -13.6550 H       
 254 H254         -31.4704     2.3866   -12.3421 H       
 255 H255         -29.8493     1.7746   -14.4061 H       
 256 H256         -30.4735     0.5551   -15.3786 H       
 257 H257         -35.6992     4.4364   -13.4820 H       
 258 H258         -37.7996     3.7536   -11.5716 H       
 259 H259         -37.3553     6.6083   -12.5525 H       
 260 H260         -38.8271     6.0410   -11.7278 H       
 261 H261         -37.4699     5.3797    -9.7607 H       
 262 H262         -35.9981     5.9471   -10.5855 H       
 263 H263         -36.9454     8.2357   -10.7016 H       
 264 H264         -38.4172     7.6683    -9.8768 H       
 265 H265         -36.1865     6.9923    -8.2820 H       
 266 H266         -37.5485    10.7498    -8.1276 H       
 267 H267         -35.6800     8.3863    -6.4190 H       
 268 H268         -36.2588     9.9627    -6.3675 H       
 269 H269         -40.0685     4.5481   -12.7897 H       
 270 H270         -39.7670     4.4529   -15.6928 H       
 271 H271         -41.0967     2.2028   -14.1188 H       
 272 H272         -41.2291     2.4185   -15.8807 H       
 273 H273         -38.7641     2.2459   -16.0870 H       
 274 H274         -38.6317     2.0302   -14.3251 H       
 275 H275         -37.5701    -0.1134   -15.5665 H       
 276 H276         -38.6371    -1.4088   -15.6449 H       
 277 H277         -42.2937     4.2200   -16.6007 H       
 278 H278         -44.1769     5.4372   -14.7300 H       
 279 H279         -43.1531     6.9085   -17.1990 H       
 280 H280         -44.5759     7.3986   -16.2484 H       
 281 H281         -43.1531     7.6127   -14.2290 H       
 282 H282         -41.7302     7.1225   -15.1795 H       
 283 H283         -42.0463     9.0835   -16.6638 H       
 284 H284         -43.4691     9.5737   -15.7133 H       
 285 H285         -42.0462     9.7878   -13.6938 H       
 286 H286         -40.6234     9.2976   -14.6444 H       
 287 H287         -40.8040    11.6913   -14.4825 H       
 288 H288         -41.0415    11.2271   -16.0617 H       
 289 H289         -46.3164     6.0318   -16.2571 H       
 290 H290         -46.5050     4.2007   -18.5241 H       
 291 H291         -48.4007     2.9351   -17.5479 H       
 292 H292         -46.9202     2.7115   -16.5854 H       
 293 H293         -48.1961     3.8126   -16.0128 H       
 294 H294         -49.1127     4.2710   -19.2004 H       
 295 H295         -50.2942     6.8433   -18.4826 H       
 296 H296         -50.3948     7.5777   -20.8863 H       
 297 H297         -47.5847     7.1342   -19.7803 H       
 298 H298         -48.0535     8.3588   -20.9840 H       
 299 H299         -48.6751     8.4634   -19.3194 H       
 300 H300         -50.0494     5.3428   -21.9035 H       
 301 H301         -48.8356     6.5057   -22.4889 H       
 302 H302         -48.3928     5.3031   -21.2536 H       
 303 H303         -52.5251     7.0608   -19.7229 H       
 304 H304         -53.7399     4.4090   -19.8640 H       
 305 H305         -54.8695     7.2127   -20.2786 H       
 306 H306         -55.8370     5.7190   -20.3089 H       
 307 H307         -55.1167     5.2054   -17.9925 H       
 308 H308         -54.1491     6.6991   -17.9622 H       
 309 H309         -56.2034     8.0373   -18.3335 H       
 310 H310         -57.1709     6.5435   -18.3638 H       
 311 H311         -55.6972     6.6006   -15.9552 H       
 312 H312         -58.2236     8.2004   -14.1489 H       
 313 H313         -58.3035     8.3224   -17.6094 H       
 314 H314         -59.0968     8.8079   -16.2103 H       
 315 H315         -54.6266     4.5885   -23.4181 H       
 316 H316          17.0284    12.3092   -15.6490 H       
 317 H317          16.9743    11.4410   -17.2019 H       
 318 H318          15.9468    12.8717   -16.9459 H       
 319 H319          15.7085    10.2191   -15.4547 H       
 320 H320          14.6809    11.6498   -15.1986 H       
 321 H321          13.9288    11.5320   -17.5585 H       
 322 H322          14.9564    10.1013   -17.8146 H       
 323 H323          13.6905     8.8794   -16.0673 H       
 324 H324          12.6629    10.3101   -15.8112 H       
 325 H325          11.9108    10.1923   -18.1711 H       
 326 H326          12.9384     8.7616   -18.4272 H       
 327 H327          11.6725     7.5397   -16.6799 H       
 328 H328          10.6449     8.9703   -16.4238 H       
 329 H329           9.8928     8.8526   -18.7837 H       
 330 H330          10.9204     7.4219   -19.0398 H       
 331 H331           9.6545     6.2000   -17.2925 H       
 332 H332           8.6269     7.6306   -17.0364 H       
 333 H333           7.8748     7.5129   -19.3963 H       
 334 H334           8.9024     6.0822   -19.6524 H       
 335 H335           7.6365     4.8602   -17.9051 H       
 336 H336           6.6089     6.2909   -17.6490 H       
 337 H337           5.8568     6.1731   -20.0089 H       
 338 H338           6.8844     4.7425   -20.2650 H       
 339 H339           5.6185     3.5205   -18.5177 H       
 340 H340           4.5910     4.9512   -18.2616 H       
 341 H341           3.8389     4.8334   -20.6215 H       
 342 H342           4.8664     3.4028   -20.8776 H       
 343 H343           3.6005     2.1808   -19.1303 H       
 344 H344           2.5730     3.6115   -18.8742 H       
 345 H345           2.8484     2.0630   -21.4902 H       
 346 H346           1.8209     3.4937   -21.2341 H       
@<TRIPOS>BOND
   1    1    2 2
   2    1    4 1
   3    1   14 am
   4    3    4 1
   5    3  162 1
   6    3  163 1
   7    4    5 1
   8    4  164 1
   9    5    6 1
  10    5  165 1
  11    5  166 1
  12    6    7 1
  13    6  167 1
  14    6  168 1
  15    7    8 1
  16    7  169 1
  17    7  170 1
  18    8    9 1
  19    8  171 1
  20    9   10 2
  21    9   11 1
  22   10  172 1
  23   11  145 am
  24   11  173 1
  25   12   13 2
  26   12   15 1
  27   12   22 am
  28   14   15 1
  29   14  174 1
  30   15   16 1
  31   15  175 1
  32   16   17 1
  33   16  176 1
  34   16  177 1
  35   17   18 1
  36   17   19 1
  37   17  178 1
  38   18  179 1
  39   18  180 1
  40   18  181 1
  41   19  182 1
  42   19  183 1
  43   19  184 1
  44   20   21 2
  45   20   23 1
  46   20   33 am
  47   22   23 1
  48   22  185 1
  49   23   24 1
  50   23  186 1
  51   24   25 1
  52   24  187 1
  53   24  188 1
  54   25   26 1
  55   25  189 1
  56   25  190 1
  57   26   27 1
  58   26  191 1
  59   26  192 1
  60   27   28 1
  61   27  193 1
  62   28   29 2
  63   28   30 1
  64   29  194 1
  65   30  195 1
  66   30  196 1
  67   31   32 2
  68   31   34 1
  69   31   42 am
  70   33   34 1
  71   33  197 1
  72   34   35 1
  73   34  198 1
  74   35   36 1
  75   35  199 1
  76   35  200 1
  77   36   37 1
  78   36  201 1
  79   36  202 1
  80   37   38 2
  81   37   39 am
  82   39  203 1
  83   39  204 1
  84   40   41 2
  85   40   43 1
  86   40   47 am
  87   42   43 1
  88   42  205 1
  89   43   44 1
  90   43  206 1
  91   44  207 1
  92   44  208 1
  93   44  209 1
  94   45   46 2
  95   45   48 1
  96   45   56 am
  97   47   48 1
  98   47  210 1
  99   48   49 1
 100   48  211 1
 101   49   50 1
 102   49  212 1
 103   49  213 1
 104   50   51 1
 105   50  214 1
 106   50  215 1
 107   51   52 2
 108   51   53 am
 109   53  216 1
 110   53  217 1
 111   54   55 2
 112   54   57 1
 113   54   67 am
 114   56   57 1
 115   56  218 1
 116   57   58 1
 117   57  219 1
 118   58   59 1
 119   58  220 1
 120   58  221 1
 121   59   60 1
 122   59  222 1
 123   59  223 1
 124   60   61 1
 125   60  224 1
 126   60  225 1
 127   61   62 1
 128   61  226 1
 129   62   63 2
 130   62   64 1
 131   63  227 1
 132   64  228 1
 133   64  229 1
 134   65   66 2
 135   65   68 1
 136   65   78 am
 137   67   68 1
 138   67  230 1
 139   68   69 1
 140   68  231 1
 141   69   70 1
 142   69  232 1
 143   69  233 1
 144   70   71 1
 145   70  234 1
 146   70  235 1
 147   71   72 1
 148   71  236 1
 149   71  237 1
 150   72   73 1
 151   72  238 1
 152   73   74 2
 153   73   75 1
 154   74  239 1
 155   75  240 1
 156   75  241 1
 157   76   77 2
 158   76   85 am
 159   76   79 1
 160   78   79 1
 161   78   82 1
 162   79   80 1
 163   79  242 1
 164   80   81 1
 165   80  243 1
 166   80  244 1
 167   81   82 1
 168   81  245 1
 169   81  246 1
 170   82  247 1
 171   82  248 1
 172   83   84 2
 173   83   86 1
 174   83   94 am
 175   85   86 1
 176   85  249 1
 177   86   87 1
 178   86  250 1
 179   87   88 1
 180   87  251 1
 181   87  252 1
 182   88   89 1
 183   88  253 1
 184   88  254 1
 185   89   90 2
 186   89   91 am
 187   91  255 1
 188   91  256 1
 189   92   93 2
 190   92   95 1
 191   92  105 am
 192   94   95 1
 193   94  257 1
 194   95   96 1
 195   95  258 1
 196   96   97 1
 197   96  259 1
 198   96  260 1
 199   97   98 1
 200   97  261 1
 201   97  262 1
 202   98   99 1
 203   98  263 1
 204   98  264 1
 205   99  100 1
 206   99  265 1
 207  100  101 2
 208  100  102 1
 209  101  266 1
 210  102  267 1
 211  102  268 1
 212  103  104 2
 213  103  106 1
 214  103  114 am
 215  105  106 1
 216  105  269 1
 217  106  107 1
 218  106  270 1
 219  107  108 1
 220  107  271 1
 221  107  272 1
 222  108  109 1
 223  108  273 1
 224  108  274 1
 225  109  110 2
 226  109  111 am
 227  111  275 1
 228  111  276 1
 229  112  113 2
 230  112  115 1
 231  112  123 am
 232  114  115 1
 233  114  277 1
 234  115  116 1
 235  115  278 1
 236  116  117 1
 237  116  279 1
 238  116  280 1
 239  117  118 1
 240  117  281 1
 241  117  282 1
 242  118  119 1
 243  118  283 1
 244  118  284 1
 245  119  120 1
 246  119  285 1
 247  119  286 1
 248  120  287 1
 249  120  288 1
 250  121  122 2
 251  121  124 1
 252  121  128 am
 253  123  124 1
 254  123  289 1
 255  124  125 1
 256  124  290 1
 257  125  291 1
 258  125  292 1
 259  125  293 1
 260  126  127 2
 261  126  129 1
 262  126  135 am
 263  128  129 1
 264  128  294 1
 265  129  130 1
 266  129  295 1
 267  130  131 1
 268  130  132 1
 269  130  296 1
 270  131  297 1
 271  131  298 1
 272  131  299 1
 273  132  300 1
 274  132  301 1
 275  132  302 1
 276  133  134 2
 277  133  136 1
 278  133  144 1
 279  135  136 1
 280  135  303 1
 281  136  137 1
 282  136  304 1
 283  137  138 1
 284  137  305 1
 285  137  306 1
 286  138  139 1
 287  138  307 1
 288  138  308 1
 289  139  140 1
 290  139  309 1
 291  139  310 1
 292  140  141 1
 293  140  311 1
 294  141  142 2
 295  141  143 1
 296  142  312 1
 297  143  313 1
 298  143  314 1
 299  144  315 1
 300  145  146 2
 301  145  161 1
 302  147  148 1
 303  147  316 1
 304  147  317 1
 305  147  318 1
 306  148  149 1
 307  148  319 1
 308  148  320 1
 309  149  150 1
 310  149  321 1
 311  149  322 1
 312  150  151 1
 313  150  323 1
 314  150  324 1
 315  151  152 1
 316  151  325 1
 317  151  326 1
 318  152  153 1
 319  152  327 1
 320  152  328 1
 321  153  154 1
 322  153  329 1
 323  153  330 1
 324  154  155 1
 325  154  331 1
 326  154  332 1
 327  155  156 1
 328  155  333 1
 329  155  334 1
 330  156  157 1
 331  156  335 1
 332  156  336 1
 333  157  158 1
 334  157  337 1
 335  157  338 1
 336  158  159 1
 337  158  339 1
 338  158  340 1
 339  159  160 1
 340  159  341 1
 341  159  342 1
 342  160  161 1
 343  160  343 1
 344  160  344 1
 345  161  345 1
 346  161  346 1

#	End of record

