#	Name: ASD02198207
#	Creating user name:	WinNT
#	Creation time:	15. 06. 2019 20:19

#	Modifying user name:	WinNT
#	Modification time:	15. 06. 2019 20:19

#	Program:	/corina/corina34_cracker 3.40 0067  02.08.2006

@<TRIPOS>MOLECULE
ASD02198207
  46   49    0    0    0
SMALL
NO_CHARGES


@<TRIPOS>ATOM
   1 C1            -0.0166     1.3742     0.0096 C.2     
   2 C2             0.0021    -0.0041     0.0020 C.2     
   3 C3            -1.1876    -0.8011     0.0086 C.1     
   4 S4             1.5680     2.0032    -0.0022 S.3     
   5 C5             2.2763     0.3962    -0.0175 C.2     
   6 C6             1.2842    -0.5519    -0.0132 C.2     
   7 C7             3.6612     0.1206    -0.0327 C.2     
   8 C8             4.6295     1.2244    -0.0359 C.2     
   9 O9             4.0534    -1.0354    -0.0430 O.2     
  10 N10            1.5318    -1.9173    -0.0229 N.pl3   
  11 N11           -1.1601     2.1393     0.0193 N.pl3   
  12 N12           -2.1313    -1.4335     0.0139 N.1     
  13 C13           -1.0634     3.6011     0.0268 C.3     
  14 C14           -2.3389     4.2169    -0.5746 C.3     
  15 C15           -2.9728     5.0853     0.5316 C.3     
  16 C16           -1.7892     5.4294     1.4695 C.3     
  17 C17           -0.9667     4.1169     1.4775 C.3     
  18 S18            4.2169     2.9336    -0.0216 S.3     
  19 C19            5.9174     3.3807    -0.0362 C.2     
  20 C20            5.9873     1.0796    -0.0446 C.2     
  21 C21            6.6885     2.2559    -0.0507 C.2     
  22 C22            6.4329     4.7655    -0.0337 C.ar    
  23 C23            5.5462     5.8437    -0.0182 C.ar    
  24 C24            7.8090     5.0014    -0.0409 C.ar    
  25 C25            8.2835     6.2966    -0.0386 C.ar    
  26 C26            7.3992     7.3607    -0.0286 C.ar    
  27 C27            6.0342     7.1340    -0.0160 C.ar    
  28 H28            2.4449    -2.2446    -0.0333 H       
  29 H29            0.7918    -2.5444    -0.0192 H       
  30 H30           -2.0304     1.7108     0.0212 H       
  31 H31           -0.1904     3.9201    -0.5426 H       
  32 H32           -2.0848     4.8354    -1.4354 H       
  33 H33           -3.0299     3.4281    -0.8720 H       
  34 H34           -3.3989     5.9939     0.1061 H       
  35 H35           -3.7346     4.5214     1.0698 H       
  36 H36           -1.2005     6.2517     1.0629 H       
  37 H37           -2.1467     5.6672     2.4714 H       
  38 H38           -1.4045     3.3965     2.1684 H       
  39 H39            0.0712     4.3187     1.7422 H       
  40 H40            6.4702     0.1136    -0.0499 H       
  41 H41            7.7679     2.2901    -0.0582 H       
  42 H42            4.4806     5.6681    -0.0084 H       
  43 H43            8.5003     4.1717    -0.0480 H       
  44 H44            9.3477     6.4805    -0.0442 H       
  45 H45            7.7760     8.3729    -0.0264 H       
  46 H46            5.3494     7.9691    -0.0086 H       
@<TRIPOS>BOND
   1    1    2 2
   2    1    4 1
   3    1   11 1
   4    2    3 1
   5    2    6 1
   6    3   12 3
   7    4    5 1
   8    5    6 2
   9    5    7 1
  10    6   10 1
  11    7    8 1
  12    7    9 2
  13    8   18 1
  14    8   20 2
  15   10   28 1
  16   10   29 1
  17   11   13 1
  18   11   30 1
  19   13   14 1
  20   13   17 1
  21   13   31 1
  22   14   15 1
  23   14   32 1
  24   14   33 1
  25   15   16 1
  26   15   34 1
  27   15   35 1
  28   16   17 1
  29   16   36 1
  30   16   37 1
  31   17   38 1
  32   17   39 1
  33   18   19 1
  34   19   22 1
  35   19   21 2
  36   20   21 1
  37   20   40 1
  38   21   41 1
  39   22   23 ar
  40   22   24 ar
  41   23   27 ar
  42   23   42 1
  43   24   25 ar
  44   24   43 1
  45   25   26 ar
  46   25   44 1
  47   26   27 ar
  48   26   45 1
  49   27   46 1

#	End of record

