#	Name: ASD06020132
#	Creating user name:	WinNT
#	Creation time:	15. 06. 2019 21:04

#	Modifying user name:	WinNT
#	Modification time:	15. 06. 2019 21:04

#	Program:	/corina/corina34_cracker 3.40 0067  02.08.2006

@<TRIPOS>MOLECULE
ASD06020132
  42   45    0    0    0
SMALL
NO_CHARGES


@<TRIPOS>ATOM
   1 C1            -0.0195     1.4050     0.0311 C.ar    
   2 C2             0.0002    -0.0026     0.0272 C.ar    
   3 C3             1.2324    -0.6831     0.0256 C.ar    
   4 C4             2.4228     0.0388     0.0280 C.ar    
   5 C5             2.3962     1.4340     0.0319 C.ar    
   6 C6             1.1781     2.1148     0.0334 C.ar    
   7 C7            -1.2687     2.1052     0.0268 C.1     
   8 N8            -2.2596     2.6606     0.0233 N.1     
   9 C9             1.2614    -2.1148     0.0221 C.1     
  10 N10            1.2844    -3.2506     0.0193 N.1     
  11 C11            3.6244     2.1704     0.0347 C.1     
  12 N12            4.5987     2.7545     0.0370 N.1     
  13 C13           -4.1463    -3.3793     0.0183 C.ar    
  14 C14           -3.1427    -2.4033     0.0208 C.ar    
  15 C15           -3.4975    -1.0481     0.0247 C.ar    
  16 C16           -4.8838    -0.7447     0.0253 C.ar    
  17 C17           -5.7911    -1.7560     0.0221 C.ar    
  18 N18           -5.4197    -3.0269     0.0195 N.ar    
  19 S19           -1.3862    -2.5158     0.0203 S.3     
  20 C20           -1.2648    -0.7609     0.0252 C.2     
  21 N21           -2.4457    -0.2314     0.0268 N.2     
  22 N22           -3.8011    -4.7275     0.0087 N.pl3   
  23 C23           -6.9917    -6.2696     0.4418 C.ar    
  24 N24           -6.0523    -5.3514     0.3378 N.ar    
  25 C25           -4.7872    -5.6967     0.1181 C.ar    
  26 C26           -4.4673    -7.0508    -0.0013 C.ar    
  27 C27           -5.4848    -7.9773     0.1148 C.ar    
  28 N28           -6.7222    -7.5549     0.3340 N.ar    
  29 C29           -5.1922    -9.4506    -0.0067 C.3     
  30 C30           -8.4127    -5.8380     0.6973 C.3     
  31 H31            3.3688    -0.4822     0.0271 H       
  32 H32            1.1644     3.1947     0.0364 H       
  33 H33           -5.2153     0.2832     0.0285 H       
  34 H34           -6.8442    -1.5167     0.0226 H       
  35 H35           -2.8708    -4.9893    -0.0745 H       
  36 H36           -3.4498    -7.3655    -0.1802 H       
  37 H37           -4.9593    -9.8571     0.9775 H       
  38 H38           -6.0645    -9.9619    -0.4138 H       
  39 H39           -4.3412    -9.5984    -0.6715 H       
  40 H40           -8.9209    -5.6793    -0.2539 H       
  41 H41           -8.9318    -6.6126     1.2617 H       
  42 H42           -8.4134    -4.9098     1.2688 H       
@<TRIPOS>BOND
   1    1    2 ar
   2    1    6 ar
   3    1    7 1
   4    2    3 ar
   5    2   20 1
   6    3    4 ar
   7    3    9 1
   8    4    5 ar
   9    4   31 1
  10    5    6 ar
  11    5   11 1
  12    6   32 1
  13    7    8 3
  14    9   10 3
  15   11   12 3
  16   13   14 ar
  17   13   18 ar
  18   13   22 1
  19   14   15 ar
  20   14   19 1
  21   15   16 ar
  22   15   21 1
  23   16   17 ar
  24   16   33 1
  25   17   18 ar
  26   17   34 1
  27   19   20 1
  28   20   21 2
  29   22   25 1
  30   22   35 1
  31   23   24 ar
  32   23   28 ar
  33   23   30 1
  34   24   25 ar
  35   25   26 ar
  36   26   27 ar
  37   26   36 1
  38   27   28 ar
  39   27   29 1
  40   29   37 1
  41   29   38 1
  42   29   39 1
  43   30   40 1
  44   30   41 1
  45   30   42 1

#	End of record

