#	Name: ASD01903117
#	Creating user name:	WinNT
#	Creation time:	15. 06. 2019 19:54

#	Modifying user name:	WinNT
#	Modification time:	15. 06. 2019 19:54

#	Program:	/corina/corina34_cracker 3.40 0067  02.08.2006

@<TRIPOS>MOLECULE
ASD01903117
  48   51    0    0    0
SMALL
NO_CHARGES


@<TRIPOS>ATOM
   1 C1             0.0899     1.5487     0.0207 C.3     
   2 C2            -0.1752     0.0475    -0.0121 C.3     
   3 C3             0.2773    -0.6446     1.2893 C.3     
   4 C4            -0.4711     0.0389     2.4130 C.3     
   5 C5             0.0692     1.4991     2.4675 C.3     
   6 C6            -0.5112     2.2160     1.2716 C.3     
   7 C7            -0.2205    -0.3837     3.8260 C.2     
   8 N8            -0.3398     0.7418     4.5809 N.am    
   9 C9            -0.3620     1.8865     3.8459 C.2     
  10 O10           -0.6685     2.9947     4.2302 O.2     
  11 O11            0.0359    -1.5017     4.2185 O.2     
  12 C12           -0.4317     0.7238     5.9813 C.ar    
  13 C13            0.7199     0.7889     6.7531 C.ar    
  14 C14            0.6301     0.7707     8.1308 C.ar    
  15 C15           -0.6128     0.6877     8.7449 C.ar    
  16 C16           -1.7659     0.6230     7.9730 C.ar    
  17 C17           -1.6762     0.6464     6.5950 C.ar    
  18 Cl18          -3.1167     0.5656     5.6296 Cl      
  19 N19           -0.7036     0.6688    10.1411 N.am    
  20 C20           -1.6497    -0.0773    10.7450 C.2     
  21 C21           -1.6814    -0.1794    12.2224 C.ar    
  22 N22           -0.7754     0.4663    12.9462 N.ar    
  23 C23           -0.7684     0.4021    14.2599 C.ar    
  24 C24           -1.7137    -0.3481    14.9408 C.ar    
  25 C25           -2.6785    -1.0385    14.2236 C.ar    
  26 C26           -2.6654    -0.9478    12.8408 C.ar    
  27 O27           -2.4768    -0.6665    10.0773 O.2     
  28 C28            1.6012     1.7869     0.0080 C.3     
  29 H29           -0.3477     2.0050    -0.8672 H       
  30 H30           -1.2430    -0.1213    -0.1510 H       
  31 H31            0.3639    -0.3897    -0.8524 H       
  32 H32            0.0216    -1.7038     1.2588 H       
  33 H33            1.3517    -0.5211     1.4253 H       
  34 H34           -1.5398     0.0444     2.1987 H       
  35 H35            1.1573     1.4939     2.4034 H       
  36 H36           -0.2369     3.2706     1.2999 H       
  37 H37           -1.5962     2.1119     1.2649 H       
  38 H38            1.6867     0.8534     6.2760 H       
  39 H39            1.5265     0.8206     8.7310 H       
  40 H40           -2.7326     0.5585     8.4502 H       
  41 H41           -0.0856     1.1928    10.6745 H       
  42 H42           -0.0154     0.9412    14.8155 H       
  43 H43           -1.6987    -0.3947    16.0196 H       
  44 H44           -3.4258    -1.6304    14.7312 H       
  45 H45           -3.4023    -1.4722    12.2506 H       
  46 H46            2.0291     1.3574    -0.8978 H       
  47 H47            1.8003     2.8583     0.0313 H       
  48 H48            2.0508     1.3147     0.8815 H       
@<TRIPOS>BOND
   1    1    2 1
   2    1   28 1
   3    1    6 1
   4    1   29 1
   5    2    3 1
   6    2   30 1
   7    2   31 1
   8    3    4 1
   9    3   32 1
  10    3   33 1
  11    4    5 1
  12    4    7 1
  13    4   34 1
  14    5    6 1
  15    5    9 1
  16    5   35 1
  17    6   36 1
  18    6   37 1
  19    7    8 am
  20    7   11 2
  21    8    9 am
  22    8   12 1
  23    9   10 2
  24   12   13 ar
  25   12   17 ar
  26   13   14 ar
  27   13   38 1
  28   14   15 ar
  29   14   39 1
  30   15   16 ar
  31   15   19 1
  32   16   17 ar
  33   16   40 1
  34   17   18 1
  35   19   20 am
  36   19   41 1
  37   20   21 1
  38   20   27 2
  39   21   22 ar
  40   21   26 ar
  41   22   23 ar
  42   23   24 ar
  43   23   42 1
  44   24   25 ar
  45   24   43 1
  46   25   26 ar
  47   25   44 1
  48   26   45 1
  49   28   46 1
  50   28   47 1
  51   28   48 1

#	End of record

