#	Name: ASD01910942
#	Creating user name:	WinNT
#	Creation time:	15. 06. 2019 19:56

#	Modifying user name:	WinNT
#	Modification time:	15. 06. 2019 19:56

#	Program:	/corina/corina34_cracker 3.40 0067  02.08.2006

@<TRIPOS>MOLECULE
ASD01910942
  55   58    0    0    0
SMALL
NO_CHARGES


@<TRIPOS>ATOM
   1 N1             0.3849     1.1965    -0.3492 N.am    
   2 C2             0.1585    -0.2397    -0.1350 C.3     
   3 C3            -0.4311    -0.4393     1.2667 C.3     
   4 N4            -1.5577     0.4886     1.4387 N.am    
   5 C5            -1.3314     1.9249     1.2246 C.3     
   6 C6            -0.7404     2.1251    -0.1717 C.3     
   7 C7            -2.7767     0.0307     1.7862 C.2     
   8 C8            -3.8694     0.9837     2.0765 C.ar    
   9 C9            -5.1600     0.7333     1.6048 C.ar    
  10 C10           -6.1824     1.6219     1.8745 C.ar    
  11 C11           -5.9375     2.7629     2.6113 C.ar    
  12 C12           -4.6502     3.0268     3.0896 C.ar    
  13 C13           -3.6150     2.1302     2.8258 C.ar    
  14 C14           -4.3970     4.2113     3.8536 C.1     
  15 O15           -2.9778    -1.1657     1.8610 O.2     
  16 C16           -4.1894     5.1823     4.4799 C.1     
  17 C17           -3.9361     6.3667     5.2439 C.ar    
  18 C18           -2.6541     6.6404     5.7267 C.ar    
  19 N19           -2.4220     7.7297     6.4292 N.ar    
  20 C20           -3.3762     8.5982     6.7041 C.ar    
  21 C21           -4.6726     8.3999     6.2628 C.ar    
  22 C22           -4.9690     7.2744     5.5153 C.ar    
  23 C23            1.6039     1.6545    -0.6966 C.2     
  24 C24            1.7891     3.0825    -1.0322 C.ar    
  25 O25            2.5510     0.8936    -0.7341 O.2     
  26 C26            2.9918     3.7218    -0.7319 C.ar    
  27 C27            3.1582     5.0595    -1.0497 C.ar    
  28 C28            2.1301     5.7605    -1.6647 C.ar    
  29 C29            0.9371     5.1280    -1.9631 C.ar    
  30 C30            0.7628     3.7943    -1.6561 C.ar    
  31 O31            4.3286     5.6863    -0.7588 O.3     
  32 C32            4.4312     7.0665    -1.1144 C.3     
  33 H33           -0.5401    -0.6154    -0.8827 H       
  34 H34            1.1049    -0.7749    -0.2134 H       
  35 H35           -0.7829    -1.4655     1.3728 H       
  36 H36            0.3316    -0.2319     2.0173 H       
  37 H37           -2.2777     2.4600     1.3030 H       
  38 H38           -0.6328     2.3006     1.9722 H       
  39 H39           -0.3890     3.1515    -0.2765 H       
  40 H40           -1.5012     1.9176    -0.9241 H       
  41 H41           -5.3589    -0.1574     1.0272 H       
  42 H42           -7.1782     1.4230     1.5067 H       
  43 H43           -6.7416     3.4535     2.8185 H       
  44 H44           -2.6187     2.3286     3.1926 H       
  45 H45           -1.8468     5.9527     5.5224 H       
  46 H46           -3.1416     9.4788     7.2837 H       
  47 H47           -5.4441     9.1188     6.4957 H       
  48 H48           -5.9723     7.0949     5.1582 H       
  49 H49            3.7908     3.1754    -0.2527 H       
  50 H50            2.2622     6.8038    -1.9108 H       
  51 H51            0.1407     5.6788    -2.4413 H       
  52 H52           -0.1700     3.3033    -1.8908 H       
  53 H53            4.3007     7.1749    -2.1911 H       
  54 H54            3.6584     7.6338    -0.5958 H       
  55 H55            5.4129     7.4436    -0.8277 H       
@<TRIPOS>BOND
   1    1    2 1
   2    1   23 am
   3    1    6 1
   4    2    3 1
   5    2   33 1
   6    2   34 1
   7    3    4 1
   8    3   35 1
   9    3   36 1
  10    4    5 1
  11    4    7 am
  12    5    6 1
  13    5   37 1
  14    5   38 1
  15    6   39 1
  16    6   40 1
  17    7    8 1
  18    7   15 2
  19    8    9 ar
  20    8   13 ar
  21    9   10 ar
  22    9   41 1
  23   10   11 ar
  24   10   42 1
  25   11   12 ar
  26   11   43 1
  27   12   13 ar
  28   12   14 1
  29   13   44 1
  30   14   16 3
  31   16   17 1
  32   17   18 ar
  33   17   22 ar
  34   18   19 ar
  35   18   45 1
  36   19   20 ar
  37   20   21 ar
  38   20   46 1
  39   21   22 ar
  40   21   47 1
  41   22   48 1
  42   23   25 2
  43   23   24 1
  44   24   26 ar
  45   24   30 ar
  46   26   27 ar
  47   26   49 1
  48   27   28 ar
  49   27   31 1
  50   28   29 ar
  51   28   50 1
  52   29   30 ar
  53   29   51 1
  54   30   52 1
  55   31   32 1
  56   32   53 1
  57   32   54 1
  58   32   55 1

#	End of record

