#	Name: ASD07931772
#	Creating user name:	WinNT
#	Creation time:	15. 06. 2019 21:13

#	Modifying user name:	WinNT
#	Modification time:	15. 06. 2019 21:13

#	Program:	/corina/corina34_cracker 3.40 0067  02.08.2006

@<TRIPOS>MOLECULE
ASD07931772
  57   60    0    0    0
SMALL
NO_CHARGES


@<TRIPOS>ATOM
   1 C1            -0.6721     1.5023    -0.2293 C.3     
   2 C2            -0.3496     0.0674    -0.6818 C.3     
   3 C3             0.8658    -0.3940     0.1487 C.3     
   4 C4             0.8170     0.4924     1.4180 C.3     
   5 C5             0.3586     1.8629     0.8604 C.3     
   6 N6            -0.5493     2.4273    -1.3638 N.3     
   7 O7            -1.4668    -0.7876    -0.4311 O.3     
   8 C8            -1.6533    -1.8262    -1.2876 C.ar    
   9 C9            -2.8032    -2.5982    -1.2037 C.ar    
  10 C10           -2.9903    -3.6532    -2.0753 C.ar    
  11 C11           -2.0327    -3.9406    -3.0306 C.ar    
  12 C12           -0.8860    -3.1732    -3.1160 C.ar    
  13 C13           -0.6971    -2.1127    -2.2507 C.ar    
  14 C14           -3.8467    -2.2862    -0.1622 C.3     
  15 F15           -4.9042    -3.1952    -0.2747 F       
  16 F16           -3.2785    -2.3873     1.1122 F       
  17 F17           -4.3262    -0.9865    -0.3572 F       
  18 C18           -0.8511     3.8055    -0.9545 C.3     
  19 C19           -1.4240     4.5630    -2.1245 C.ar    
  20 C20           -2.7928     4.7122    -2.2480 C.ar    
  21 C21           -3.3183     5.4070    -3.3213 C.ar    
  22 C22           -2.4751     5.9530    -4.2709 C.ar    
  23 C23           -1.1063     5.8046    -4.1470 C.ar    
  24 C24           -0.5806     5.1135    -3.0714 C.ar    
  25 C25            0.7846     2.3392    -1.9729 C.3     
  26 C26            1.8010     2.9577    -1.0480 C.ar    
  27 C27            2.6547     2.1501    -0.3200 C.ar    
  28 C28            3.5870     2.7174     0.5285 C.ar    
  29 C29            3.6659     4.0923     0.6486 C.ar    
  30 C30            2.8129     4.8999    -0.0801 C.ar    
  31 C31            1.8835     4.3327    -0.9318 C.ar    
  32 H32           -1.6807     1.5465     0.1816 H       
  33 H33           -0.1020     0.0574    -1.7433 H       
  34 H34            0.7687    -1.4466     0.4146 H       
  35 H35            1.7910    -0.2221    -0.4013 H       
  36 H36            0.0916     0.1040     2.1328 H       
  37 H37            1.8047     0.5711     1.8724 H       
  38 H38            1.2020     2.3991     0.4254 H       
  39 H39           -0.1085     2.4572     1.6457 H       
  40 H40           -3.8852    -4.2545    -2.0104 H       
  41 H41           -2.1807    -4.7662    -3.7110 H       
  42 H42           -0.1394    -3.3999    -3.8627 H       
  43 H43            0.1967    -1.5105    -2.3209 H       
  44 H44           -1.5757     3.7923    -0.1403 H       
  45 H45            0.0639     4.2934    -0.6187 H       
  46 H46           -3.4516     4.2856    -1.5061 H       
  47 H47           -4.3877     5.5229    -3.4181 H       
  48 H48           -2.8857     6.4952    -5.1098 H       
  49 H49           -0.4475     6.2309    -4.8891 H       
  50 H50            0.4889     5.0007    -2.9726 H       
  51 H51            1.0377     1.2929    -2.1434 H       
  52 H52            0.7860     2.8730    -2.9233 H       
  53 H53            2.5930     1.0760    -0.4138 H       
  54 H54            4.2534     2.0865     1.0978 H       
  55 H55            4.3938     4.5355     1.3120 H       
  56 H56            2.8743     5.9740     0.0140 H       
  57 H57            1.2194     4.9637    -1.5039 H       
@<TRIPOS>BOND
   1    1    2 1
   2    1    5 1
   3    1    6 1
   4    1   32 1
   5    2    3 1
   6    2    7 1
   7    2   33 1
   8    3    4 1
   9    3   34 1
  10    3   35 1
  11    4    5 1
  12    4   36 1
  13    4   37 1
  14    5   38 1
  15    5   39 1
  16    6   18 1
  17    6   25 1
  18    7    8 1
  19    8    9 ar
  20    8   13 ar
  21    9   10 ar
  22    9   14 1
  23   10   11 ar
  24   10   40 1
  25   11   12 ar
  26   11   41 1
  27   12   13 ar
  28   12   42 1
  29   13   43 1
  30   14   15 1
  31   14   16 1
  32   14   17 1
  33   18   19 1
  34   18   44 1
  35   18   45 1
  36   19   20 ar
  37   19   24 ar
  38   20   21 ar
  39   20   46 1
  40   21   22 ar
  41   21   47 1
  42   22   23 ar
  43   22   48 1
  44   23   24 ar
  45   23   49 1
  46   24   50 1
  47   25   26 1
  48   25   51 1
  49   25   52 1
  50   26   27 ar
  51   26   31 ar
  52   27   28 ar
  53   27   53 1
  54   28   29 ar
  55   28   54 1
  56   29   30 ar
  57   29   55 1
  58   30   31 ar
  59   30   56 1
  60   31   57 1

#	End of record

