#	Name: ASD03331067
#	Creating user name:	WinNT
#	Creation time:	15. 06. 2019 20:38

#	Modifying user name:	WinNT
#	Modification time:	15. 06. 2019 20:38

#	Program:	/corina/corina34_cracker 3.40 0067  02.08.2006

@<TRIPOS>MOLECULE
ASD03331067
  64   67    0    0    0
SMALL
NO_CHARGES


@<TRIPOS>ATOM
   1 N1            -0.8738     1.7431    -0.4498 N.pl3   
   2 C2            -0.6928     0.4227    -0.1809 C.2     
   3 C3             0.6230    -0.2341     0.1458 C.3     
   4 N4             1.3238     0.5686     1.1603 N.3     
   5 C5             2.1595     1.5972     0.5380 C.3     
   6 C6             1.5208     2.1156    -0.7473 C.3     
   7 C7             0.1730     2.7688    -0.4296 C.3     
   8 C8            -2.1976     1.9263    -0.7252 C.2     
   9 N9            -2.8123     0.7721    -0.6136 N.2     
  10 C10           -1.9117    -0.1767    -0.2758 C.2     
  11 C11           -2.1974    -1.6047    -0.0504 C.2     
  12 O12           -1.2972    -2.3648     0.2511 O.2     
  13 N13           -3.4565    -2.0683    -0.1783 N.am    
  14 C14            2.1183    -0.2869     2.0518 C.3     
  15 C15           -4.9825    -3.8777    -0.7135 C.2     
  16 C16           -3.7405    -3.4880     0.0459 C.3     
  17 C17           -3.9578    -3.7349     1.5401 C.3     
  18 C18           -4.3882    -5.1866     1.7599 C.3     
  19 O19           -5.8609    -3.0622    -0.8988 O.2     
  20 C20           -2.6542    -3.4695     2.2957 C.3     
  21 C21           -5.0484    -2.7955     2.0590 C.3     
  22 N22           -5.1171    -5.1325    -1.1866 N.am    
  23 C23           -6.1697    -5.8993    -1.8700 C.3     
  24 C24           -5.5646    -7.1708    -1.2591 C.3     
  25 C25           -4.2738    -6.3355    -1.2526 C.3     
  26 F26           -6.0554    -7.4859     0.0125 F       
  27 C27           -2.8338     3.2112    -1.0883 C.ar    
  28 C28           -3.7092     3.2782    -2.1755 C.ar    
  29 C29           -4.3004     4.4820    -2.5096 C.ar    
  30 C30           -4.0271     5.6185    -1.7706 C.ar    
  31 C31           -3.1600     5.5586    -0.6916 C.ar    
  32 C32           -2.5669     4.3599    -0.3436 C.ar    
  33 F33           -2.8982     6.6734     0.0253 F       
  34 F34           -3.9768     2.1688    -2.8986 F       
  35 H35            0.4432    -1.2364     0.5347 H       
  36 H36            1.2331    -0.2958    -0.7553 H       
  37 H37            2.2857     2.4259     1.2347 H       
  38 H38            3.1366     1.1731     0.3066 H       
  39 H39            2.1801     2.8509    -1.2086 H       
  40 H40            1.3675     1.2850    -1.4363 H       
  41 H41           -0.0484     3.5301    -1.1775 H       
  42 H42            0.2143     3.2279     0.5582 H       
  43 H43           -4.1745    -1.4621    -0.4187 H       
  44 H44            2.8101    -0.8857     1.4594 H       
  45 H45            2.6807     0.3362     2.7472 H       
  46 H46            1.4536    -0.9460     2.6104 H       
  47 H47           -2.8988    -4.0864    -0.3026 H       
  48 H48           -3.5992    -5.8554     1.4161 H       
  49 H49           -4.5703    -5.3548     2.8213 H       
  50 H50           -5.3016    -5.3836     1.1987 H       
  51 H51           -2.3476    -2.4352     2.1392 H       
  52 H52           -2.8090    -3.6454     3.3603 H       
  53 H53           -1.8772    -4.1387     1.9261 H       
  54 H54           -5.9771    -2.9846     1.5206 H       
  55 H55           -5.2032    -2.9714     3.1235 H       
  56 H56           -4.7418    -1.7613     1.9024 H       
  57 H57           -7.1732    -5.6782    -1.5065 H       
  58 H58           -6.0970    -5.8629    -2.9570 H       
  59 H59           -5.5390    -8.0239    -1.9371 H       
  60 H60           -3.7013    -6.4141    -2.1768 H       
  61 H61           -3.6620    -6.4861    -0.3631 H       
  62 H62           -4.9769     4.5353    -3.3498 H       
  63 H63           -4.4913     6.5568    -2.0360 H       
  64 H64           -1.8947     4.3137     0.5004 H       
@<TRIPOS>BOND
   1    1    2 1
   2    1    7 1
   3    1    8 1
   4    2    3 1
   5    2   10 2
   6    3    4 1
   7    3   35 1
   8    3   36 1
   9    4    5 1
  10    4   14 1
  11    5    6 1
  12    5   37 1
  13    5   38 1
  14    6    7 1
  15    6   39 1
  16    6   40 1
  17    7   41 1
  18    7   42 1
  19    8    9 2
  20    8   27 1
  21    9   10 1
  22   10   11 1
  23   11   12 2
  24   11   13 am
  25   13   16 1
  26   13   43 1
  27   14   44 1
  28   14   45 1
  29   14   46 1
  30   15   19 2
  31   15   22 am
  32   15   16 1
  33   16   17 1
  34   16   47 1
  35   17   18 1
  36   17   20 1
  37   17   21 1
  38   18   48 1
  39   18   49 1
  40   18   50 1
  41   20   51 1
  42   20   52 1
  43   20   53 1
  44   21   54 1
  45   21   55 1
  46   21   56 1
  47   22   23 1
  48   22   25 1
  49   23   24 1
  50   23   57 1
  51   23   58 1
  52   24   25 1
  53   24   26 1
  54   24   59 1
  55   25   60 1
  56   25   61 1
  57   27   28 ar
  58   27   32 ar
  59   28   29 ar
  60   28   34 1
  61   29   30 ar
  62   29   62 1
  63   30   31 ar
  64   30   63 1
  65   31   32 ar
  66   31   33 1
  67   32   64 1

#	End of record

