#	Name: ASD03091597
#	Creating user name:	WinNT
#	Creation time:	15. 06. 2019 20:31

#	Modifying user name:	WinNT
#	Modification time:	15. 06. 2019 20:31

#	Program:	/corina/corina34_cracker 3.40 0067  02.08.2006

@<TRIPOS>MOLECULE
ASD03091597
  40   42    0    0    0
SMALL
NO_CHARGES


@<TRIPOS>ATOM
   1 C1            -0.0217     1.7506     0.0117 C.2     
   2 S2             0.0021    -0.0041     0.0020 S.3     
   3 C3             1.7618    -0.0299    -0.0149 C.ar    
   4 C4             2.2499     1.2830    -0.0125 C.ar    
   5 C5             1.2225     2.2397     0.0024 C.2     
   6 C6             3.6513     1.4856    -0.0239 C.ar    
   7 C7             4.5018     0.4262    -0.0372 C.ar    
   8 C8             4.0125    -0.8770    -0.0401 C.ar    
   9 C9             2.6553    -1.1055    -0.0292 C.ar    
  10 C10           -1.2416     2.5697     0.0221 C.2     
  11 O11           -1.1592     3.7835     0.0278 O.2     
  12 N12           -2.4517     1.9763     0.0253 N.am    
  13 N13           -5.3458     2.6492     1.8132 N.3     
  14 C14           -4.0164     3.1762     1.4769 C.3     
  15 C15           -3.6679     2.7930     0.0357 C.3     
  16 C16           -4.8317     1.9894    -0.5580 C.3     
  17 C17           -6.0984     2.8531    -0.5078 C.3     
  18 C18           -6.3799     3.2340     0.9483 C.3     
  19 C19           -5.3664     1.1818     1.7391 C.3     
  20 C20           -5.0557     0.7418     0.3057 C.3     
  21 F21            4.8716    -1.9196    -0.0539 F       
  22 H22            1.4240     3.3008     0.0065 H       
  23 H23            4.0472     2.4904    -0.0222 H       
  24 H24            5.5682     0.5969    -0.0461 H       
  25 H25            2.2795    -2.1180    -0.0311 H       
  26 H26           -2.5174     1.0086     0.0207 H       
  27 H27           -4.0204     4.2619     1.5737 H       
  28 H28           -3.2753     2.7531     2.1550 H       
  29 H29           -3.5090     3.6958    -0.5540 H       
  30 H30           -4.6082     1.7113    -1.5880 H       
  31 H31           -5.9482     3.7563    -1.0991 H       
  32 H32           -6.9411     2.2888    -0.9072 H       
  33 H33           -7.3578     2.8523     1.2416 H       
  34 H34           -6.3674     4.3192     1.0493 H       
  35 H35           -4.6161     0.7729     2.4158 H       
  36 H36           -6.3527     0.8169     2.0258 H       
  37 H37           -5.8942     0.1691    -0.0904 H       
  38 H38           -4.1557     0.1269     0.2995 H       
  39 Cl39          10.5682     9.3192     7.4158 Cl      
  40 H40           10.5682    10.6892     7.4158 H       
@<TRIPOS>BOND
   1    1    2 1
   2    1    5 2
   3    1   10 1
   4    2    3 1
   5    3    4 ar
   6    3    9 ar
   7    4    5 1
   8    4    6 ar
   9    5   22 1
  10    6    7 ar
  11    6   23 1
  12    7    8 ar
  13    7   24 1
  14    8    9 ar
  15    8   21 1
  16    9   25 1
  17   10   11 2
  18   10   12 am
  19   12   15 1
  20   12   26 1
  21   13   14 1
  22   13   18 1
  23   13   19 1
  24   14   15 1
  25   14   27 1
  26   14   28 1
  27   15   16 1
  28   15   29 1
  29   16   17 1
  30   16   20 1
  31   16   30 1
  32   17   18 1
  33   17   31 1
  34   17   32 1
  35   18   33 1
  36   18   34 1
  37   19   20 1
  38   19   35 1
  39   19   36 1
  40   20   37 1
  41   20   38 1
  42   39   40 1

#	End of record

