#	Name: ASD07930483
#	Creating user name:	WinNT
#	Creation time:	15. 06. 2019 21:12

#	Modifying user name:	WinNT
#	Modification time:	15. 06. 2019 21:12

#	Program:	/corina/corina34_cracker 3.40 0067  02.08.2006

@<TRIPOS>MOLECULE
ASD07930483
  48   50    0    0    0
SMALL
NO_CHARGES


@<TRIPOS>ATOM
   1 C1            -0.0343     1.4582     0.0425 C.3     
   2 N2             0.7952    -0.4133    -2.1302 N.2     
   3 N3            -0.8904    -1.7835    -1.2685 N.pl3   
   4 C4            -0.9150    -2.8271    -0.2382 C.3     
   5 C5            -1.2300    -2.1885     1.1215 C.3     
   6 S6             0.0061    -0.8913     1.4435 S.o2    
   7 N7            -0.0141    -0.0067     0.0315 N.am    
   8 C8            -0.0113    -0.7259    -1.1551 C.2     
   9 C9             0.4500    -3.5153    -0.1755 C.3     
  10 C10           -1.9765    -3.8423    -0.5755 C.ar    
  11 C11           -2.8068    -3.6380    -1.6597 C.ar    
  12 C12           -3.7850    -4.5740    -1.9701 C.ar    
  13 C13           -3.9256    -5.7134    -1.1890 C.ar    
  14 C14           -3.0929    -5.9137    -0.1053 C.ar    
  15 C15           -2.1147    -4.9822     0.1989 C.ar    
  16 N16           -4.6278    -4.3689    -3.0681 N.am    
  17 C17           -5.0478    -5.4192    -3.8008 C.2     
  18 O18           -4.6185    -6.5323    -3.5690 O.2     
  19 O19           -0.4576     0.0117     2.4378 O.2     
  20 O20            1.3140    -1.4440     1.5003 O.2     
  21 F21           -1.3010    -5.1803     1.2590 F       
  22 C22           -6.0325    -5.2169    -4.8887 C.ar    
  23 N23           -6.4978    -3.9990    -5.1372 N.ar    
  24 C24           -7.3724    -3.7763    -6.0940 C.ar    
  25 C25           -7.8436    -4.8134    -6.8827 C.ar    
  26 C26           -7.3840    -6.1017    -6.6573 C.ar    
  27 C27           -6.4584    -6.3059    -5.6464 C.ar    
  28 F28           -7.1781    -1.4853    -5.5049 F       
  29 F29           -7.6529    -2.0266    -7.6730 F       
  30 C30           -7.8691    -2.3742    -6.3353 C.3     
  31 F31           -9.2376    -2.3090    -6.0519 F       
  32 H32            0.9882     1.8357     0.0394 H       
  33 H33           -0.5582     1.8209    -0.8418 H       
  34 H34           -0.5480     1.8077     0.9380 H       
  35 H35            1.4070     0.3332    -2.0331 H       
  36 H36           -1.4884    -1.8387    -2.0302 H       
  37 H37           -2.2270    -1.7485     1.0987 H       
  38 H38           -1.1799    -2.9460     1.9037 H       
  39 H39            1.2165    -2.7804     0.0704 H       
  40 H40            0.4311    -4.2908     0.5903 H       
  41 H41            0.6749    -3.9651    -1.1426 H       
  42 H42           -2.6960    -2.7510    -2.2657 H       
  43 H43           -4.6858    -6.4423    -1.4284 H       
  44 H44           -3.2021    -6.7996     0.5027 H       
  45 H45           -4.9098    -3.4707    -3.3019 H       
  46 H46           -8.5623    -4.6200    -7.6654 H       
  47 H47           -7.7361    -6.9269    -7.2586 H       
  48 H48           -6.0786    -7.2964    -5.4434 H       
@<TRIPOS>BOND
   1    1    7 1
   2    1   32 1
   3    1   33 1
   4    1   34 1
   5    2    8 2
   6    2   35 1
   7    3    4 1
   8    3    8 1
   9    3   36 1
  10    4    5 1
  11    4    9 1
  12    4   10 1
  13    5    6 1
  14    5   37 1
  15    5   38 1
  16    6    7 am
  17    6   19 2
  18    6   20 2
  19    7    8 1
  20    9   39 1
  21    9   40 1
  22    9   41 1
  23   10   11 ar
  24   10   15 ar
  25   11   12 ar
  26   11   42 1
  27   12   13 ar
  28   12   16 1
  29   13   14 ar
  30   13   43 1
  31   14   15 ar
  32   14   44 1
  33   15   21 1
  34   16   17 am
  35   16   45 1
  36   17   18 2
  37   17   22 1
  38   22   23 ar
  39   22   27 ar
  40   23   24 ar
  41   24   25 ar
  42   24   30 1
  43   25   26 ar
  44   25   46 1
  45   26   27 ar
  46   26   47 1
  47   27   48 1
  48   28   30 1
  49   29   30 1
  50   30   31 1

#	End of record

