#	Name: ASD05230007
#	Creating user name:	WinNT
#	Creation time:	15. 06. 2019 20:57

#	Modifying user name:	WinNT
#	Modification time:	15. 06. 2019 20:57

#	Program:	/corina/corina34_cracker 3.40 0067  02.08.2006

@<TRIPOS>MOLECULE
ASD05230007
  37   40    0    0    0
SMALL
NO_CHARGES


@<TRIPOS>ATOM
   1 C1            -0.0182     1.4879     0.0102 C.3     
   2 N2             0.0021    -0.0041     0.0020 N.3     
   3 O3             2.5110     0.2735     1.4156 O.3     
   4 C4             1.4601     1.9562    -0.0014 C.3     
   5 N5             1.8422    -1.6778    -0.4282 N.pl3   
   6 O6             4.0856     1.6136    -1.1487 O.2     
   7 C7             2.2586     0.6546     0.0617 C.3     
   8 C8             3.5228     0.6143    -0.7534 C.2     
   9 C9             4.0198    -0.7545    -1.0306 C.ar    
  10 C10            5.3283    -0.9507    -1.4757 C.ar    
  11 C11            5.7844    -2.2313    -1.7041 C.ar    
  12 C12            4.9530    -3.3206    -1.4919 C.ar    
  13 C13            3.6532    -3.1415    -1.0622 C.ar    
  14 C14            3.1699    -1.8607    -0.8372 C.ar    
  15 C15            1.2771    -0.3398    -0.6312 C.3     
  16 C16           -1.0710    -0.5152    -0.7315 C.ar    
  17 C17           -1.2099    -0.1958    -2.0763 C.ar    
  18 C18           -2.2719    -0.7033    -2.7988 C.ar    
  19 C19           -3.1964    -1.5285    -2.1850 C.ar    
  20 C20           -3.0611    -1.8484    -0.8465 C.ar    
  21 C21           -1.9985    -1.3486    -0.1194 C.ar    
  22 H22           -0.5335     1.8586    -0.8759 H       
  23 H23           -0.5164     1.8490     0.9099 H       
  24 H24            3.0345     0.9159     1.9140 H       
  25 H25            1.6827     2.4971    -0.9211 H       
  26 H26            1.6715     2.5770     0.8693 H       
  27 H27            1.3227    -2.3937    -0.0301 H       
  28 H28            5.9790    -0.1046    -1.6404 H       
  29 H29            6.7955    -2.3872    -2.0501 H       
  30 H30            5.3260    -4.3192    -1.6649 H       
  31 H31            3.0140    -3.9970    -0.9009 H       
  32 H32            1.2278    -0.1174    -1.6971 H       
  33 H33           -0.4885     0.4488    -2.5562 H       
  34 H34           -2.3807    -0.4552    -3.8442 H       
  35 H35           -4.0261    -1.9237    -2.7522 H       
  36 H36           -3.7848    -2.4932    -0.3701 H       
  37 H37           -1.8910    -1.6024     0.9248 H       
@<TRIPOS>BOND
   1    1    2 1
   2    1    4 1
   3    1   22 1
   4    1   23 1
   5    2   15 1
   6    2   16 1
   7    3    7 1
   8    3   24 1
   9    4    7 1
  10    4   25 1
  11    4   26 1
  12    5   14 1
  13    5   15 1
  14    5   27 1
  15    6    8 2
  16    7    8 1
  17    7   15 1
  18    8    9 1
  19    9   10 ar
  20    9   14 ar
  21   10   11 ar
  22   10   28 1
  23   11   12 ar
  24   11   29 1
  25   12   13 ar
  26   12   30 1
  27   13   14 ar
  28   13   31 1
  29   15   32 1
  30   16   17 ar
  31   16   21 ar
  32   17   18 ar
  33   17   33 1
  34   18   19 ar
  35   18   34 1
  36   19   20 ar
  37   19   35 1
  38   20   21 ar
  39   20   36 1
  40   21   37 1

#	End of record

