#	Name: ASD01918253
#	Creating user name:	WinNT
#	Creation time:	15. 06. 2019 20:11

#	Modifying user name:	WinNT
#	Modification time:	15. 06. 2019 20:11

#	Program:	/corina/corina34_cracker 3.40 0067  02.08.2006

@<TRIPOS>MOLECULE
ASD01918253
  57   60    0    0    0
SMALL
NO_CHARGES


@<TRIPOS>ATOM
   1 C1            -0.0187     1.5258     0.0104 C.3     
   2 C2             0.0021    -0.0041     0.0020 C.3     
   3 C3            -1.4333    -0.5336     0.0129 C.3     
   4 C4            -1.4126    -2.0635     0.0045 C.3     
   5 N5            -2.7870    -2.5706     0.0149 N.am    
   6 C6            -3.0152    -3.8988     0.0099 C.2     
   7 O7            -2.0805    -4.6763    -0.0032 O.2     
   8 N8            -4.2797    -4.3654     0.0195 N.am    
   9 C9            -4.5278    -5.8092     0.0141 C.3     
  10 C10           -3.9153    -6.4272    -1.2444 C.3     
  11 C11           -4.1744    -7.9351    -1.2500 C.3     
  12 C12           -3.5381    -8.5666    -0.0102 C.3     
  13 C13           -4.1506    -7.9485     1.2483 C.3     
  14 C14           -3.8914    -6.4406     1.2539 C.3     
  15 C15           -5.6585    -8.2069     1.2613 C.3     
  16 C16           -6.2949    -7.5754     0.0215 C.3     
  17 C17           -5.6824    -8.1935    -1.2370 C.3     
  18 C18           -6.0358    -6.0676     0.0271 C.3     
  19 N19           -7.7388    -7.8228     0.0339 N.am    
  20 C20           -8.4918    -7.3669     1.0545 C.2     
  21 O21           -7.9731    -6.7505     1.9642 O.2     
  22 C22           -9.9522    -7.6171     1.0671 C.ar    
  23 C23          -10.7257    -7.1384     2.1216 C.ar    
  24 C24          -12.0907    -7.3803     2.1195 C.ar    
  25 C25          -12.6341    -8.0928     1.0624 C.ar    
  26 C26          -11.8042    -8.5393     0.0461 C.ar    
  27 N27          -10.5131    -8.2910     0.0704 N.ar    
  28 H28            1.0039     1.9031     0.0027 H       
  29 H29           -0.5459     1.8868    -0.8726 H       
  30 H30           -0.5289     1.8773     0.9072 H       
  31 H31            0.5123    -0.3556    -0.8948 H       
  32 H32            0.5293    -0.3651     0.8851 H       
  33 H33           -1.9435    -0.1821     0.9097 H       
  34 H34           -1.9605    -0.1726    -0.8702 H       
  35 H35           -0.9024    -2.4150    -0.8923 H       
  36 H36           -0.8854    -2.4246     0.8875 H       
  37 H37           -3.5327    -1.9503     0.0253 H       
  38 H38           -5.0254    -3.7451     0.0299 H       
  39 H39           -4.3686    -5.9774    -2.1277 H       
  40 H40           -2.8410    -6.2432    -1.2537 H       
  41 H41           -3.7381    -8.3754    -2.1466 H       
  42 H42           -3.7227    -9.6408    -0.0142 H       
  43 H43           -2.4638    -8.3825    -0.0194 H       
  44 H44           -3.6972    -8.3984     2.1316 H       
  45 H45           -2.8171    -6.2566     1.2447 H       
  46 H46           -4.3278    -6.0003     2.1505 H       
  47 H47           -5.8432    -9.2811     1.2573 H       
  48 H48           -6.0949    -7.7666     2.1579 H       
  49 H49           -6.1357    -7.7436    -2.1203 H       
  50 H50           -5.8670    -9.2677    -1.2410 H       
  51 H51           -6.4721    -5.6272     0.9237 H       
  52 H52           -6.4891    -5.6177    -0.8562 H       
  53 H53           -8.1529    -8.3148    -0.6923 H       
  54 H54          -10.2685    -6.5867     2.9298 H       
  55 H55          -12.7164    -7.0220     2.9237 H       
  56 H56          -13.6939    -8.2985     1.0309 H       
  57 H57          -12.2243    -9.0948    -0.7793 H       
@<TRIPOS>BOND
   1    1    2 1
   2    1   28 1
   3    1   29 1
   4    1   30 1
   5    2    3 1
   6    2   31 1
   7    2   32 1
   8    3    4 1
   9    3   33 1
  10    3   34 1
  11    4    5 1
  12    4   35 1
  13    4   36 1
  14    5    6 am
  15    5   37 1
  16    6    7 2
  17    6    8 am
  18    8    9 1
  19    8   38 1
  20    9   14 1
  21    9   18 1
  22    9   10 1
  23   10   11 1
  24   10   39 1
  25   10   40 1
  26   11   17 1
  27   11   12 1
  28   11   41 1
  29   12   13 1
  30   12   42 1
  31   12   43 1
  32   13   14 1
  33   13   15 1
  34   13   44 1
  35   14   45 1
  36   14   46 1
  37   15   16 1
  38   15   47 1
  39   15   48 1
  40   16   17 1
  41   16   18 1
  42   16   19 1
  43   17   49 1
  44   17   50 1
  45   18   51 1
  46   18   52 1
  47   19   20 am
  48   19   53 1
  49   20   21 2
  50   20   22 1
  51   22   27 ar
  52   22   23 ar
  53   23   24 ar
  54   23   54 1
  55   24   25 ar
  56   24   55 1
  57   25   26 ar
  58   25   56 1
  59   26   27 ar
  60   26   57 1

#	End of record

