#	Name: ASD03092769
#	Creating user name:	WinNT
#	Creation time:	15. 06. 2019 20:33

#	Modifying user name:	WinNT
#	Modification time:	15. 06. 2019 20:33

#	Program:	/corina/corina34_cracker 3.40 0067  02.08.2006

@<TRIPOS>MOLECULE
ASD03092769
  48   50    0    0    0
SMALL
NO_CHARGES


@<TRIPOS>ATOM
   1 C1             0.8029    -4.4054     7.1665 C.3     
   2 O2             0.6385    -4.5629     5.7557 O.3     
   3 C3            -0.5125    -4.0853     5.2111 C.ar    
   4 C4            -1.4594    -3.4737     6.0158 C.ar    
   5 C5            -2.6297    -2.9888     5.4612 C.ar    
   6 C6            -2.8586    -3.1127     4.1025 C.ar    
   7 Cl7           -4.3298    -2.5018     3.4127 Cl      
   8 C8            -1.9172    -3.7219     3.2923 C.ar    
   9 C9            -0.7391    -4.2051     3.8416 C.ar    
  10 N10            0.2185    -4.8175     3.0222 N.am    
  11 C11            0.3144    -4.4713     1.7232 C.2     
  12 O12           -0.4785    -3.6883     1.2441 O.2     
  13 C13            1.4066    -5.0571     0.8659 C.3     
  14 H14            2.4249    -4.8318     1.1829 H       
  15 C15            1.1427    -5.1671    -0.6371 C.3     
  16 H16            0.1790    -4.8157    -1.0059 H       
  17 C17            2.3104    -4.9556    -1.5660 C.ar    
  18 C18            3.5911    -4.8572    -1.0549 C.ar    
  19 C19            4.6622    -4.6633    -1.9070 C.ar    
  20 C20            4.4527    -4.5682    -3.2700 C.ar    
  21 C21            3.1722    -4.6675    -3.7811 C.ar    
  22 C22            2.1015    -4.8658    -2.9295 C.ar    
  23 S23            5.8179    -4.3198    -4.3559 S.o2    
  24 N24            6.3742    -5.8167    -4.7944 N.am    
  25 O25            5.2904    -3.7267    -5.5346 O.2     
  26 O26            6.8458    -3.7218    -3.5780 O.2     
  27 C27            1.1503    -6.4264     0.2331 C.3     
  28 C28            2.3431    -7.3744     0.0933 C.3     
  29 C29           -0.1952    -7.0961     0.5191 C.3     
  30 H30            1.7606    -4.8281     7.4701 H       
  31 H31            0.7771    -3.3454     7.4191 H       
  32 H32           -0.0037    -4.9225     7.6862 H       
  33 H33           -1.2839    -3.3758     7.0770 H       
  34 H34           -3.3670    -2.5125     6.0904 H       
  35 H35           -2.0981    -3.8179     2.2319 H       
  36 H36            0.8125    -5.4905     3.3899 H       
  37 H37            3.7547    -4.9315     0.0100 H       
  38 H38            5.6627    -4.5857    -1.5076 H       
  39 H39            3.0085    -4.5929    -4.8461 H       
  40 H40            1.1015    -4.9472    -3.3291 H       
  41 H41            5.9432    -6.6144    -4.4497 H       
  42 H42            7.1311    -5.8958    -5.3959 H       
  43 H43            2.2153    -8.2211     0.7677 H       
  44 H44            2.4029    -7.7339    -0.9340 H       
  45 H45            3.2608    -6.8435     0.3465 H       
  46 H46           -1.0039    -6.4189     0.2439 H       
  47 H47           -0.2755    -8.0137    -0.0636 H       
  48 H48           -0.2650    -7.3326     1.5809 H       
@<TRIPOS>BOND
   1    1    2 1
   2    1   30 1
   3    1   31 1
   4    1   32 1
   5    2    3 1
   6    3    9 ar
   7    3    4 ar
   8    4    5 ar
   9    4   33 1
  10    5    6 ar
  11    5   34 1
  12    6    7 1
  13    6    8 ar
  14    8    9 ar
  15    8   35 1
  16    9   10 1
  17   10   11 am
  18   10   36 1
  19   11   12 2
  20   11   13 1
  21   13   14 1
  22   13   27 1
  23   13   15 1
  24   15   16 1
  25   15   17 1
  26   15   27 1
  27   17   22 ar
  28   17   18 ar
  29   18   19 ar
  30   18   37 1
  31   19   20 ar
  32   19   38 1
  33   20   21 ar
  34   20   23 1
  35   21   22 ar
  36   21   39 1
  37   22   40 1
  38   23   24 am
  39   23   25 2
  40   23   26 2
  41   24   41 1
  42   24   42 1
  43   27   28 1
  44   27   29 1
  45   28   43 1
  46   28   44 1
  47   28   45 1
  48   29   46 1
  49   29   47 1
  50   29   48 1

#	End of record

