#	Name: ASD01410068
#	Creating user name:	WinNT
#	Creation time:	15. 06. 2019 19:16

#	Modifying user name:	WinNT
#	Modification time:	15. 06. 2019 19:16

#	Program:	/corina/corina34_cracker 3.40 0067  02.08.2006

@<TRIPOS>MOLECULE
ASD01410068
  32   34    0    0    0
SMALL
NO_CHARGES


@<TRIPOS>ATOM
   1 C1            -0.0223     1.3972    -0.1750 C.ar    
   2 C2             0.0013     0.0089    -0.1273 C.ar    
   3 C3            -1.1849    -0.7000    -0.0581 C.ar    
   4 C4            -2.4038    -0.0098    -0.0366 C.ar    
   5 C5            -2.4275     1.3940    -0.0849 C.ar    
   6 C6            -1.2262     2.0860    -0.1483 C.ar    
   7 C7            -3.8067    -0.4480     0.0312 C.2     
   8 C8            -4.5854     0.8019     0.0166 C.2     
   9 O9            -3.7065     1.8291    -0.0522 O.3     
  10 O10           -4.2297    -1.5897     0.0866 O.2     
  11 C11           -5.9361     0.9050     0.0629 C.2     
  12 C12           -6.5686     2.2263     0.1871 C.ar    
  13 O13            1.1448     2.0869    -0.2428 O.3     
  14 O14           -1.1677    -2.0557    -0.0117 O.3     
  15 C15           -5.7833     3.3652     0.3972 C.ar    
  16 C16           -6.3842     4.6006     0.5121 C.ar    
  17 C17           -7.7606     4.7161     0.4207 C.ar    
  18 C18           -8.5446     3.5945     0.2130 C.ar    
  19 C19           -7.9589     2.3525     0.0901 C.ar    
  20 C20           -8.4090     6.0705     0.5485 C.3     
  21 F21           -8.5087     6.6610    -0.7158 F       
  22 F22           -9.6876     5.9254     1.0975 F       
  23 F23           -7.6328     6.8823     1.3825 F       
  24 H24            0.9447    -0.5166    -0.1446 H       
  25 H25           -1.2290     3.1654    -0.1855 H       
  26 H26           -6.5476     0.0165     0.0085 H       
  27 H27            1.4499     2.2559    -1.1447 H       
  28 H28           -1.1295    -2.4182     0.8840 H       
  29 H29           -4.7093     3.2766     0.4695 H       
  30 H30           -5.7795     5.4807     0.6743 H       
  31 H31           -9.6178     3.6930     0.1428 H       
  32 H32           -8.5720     1.4783    -0.0719 H       
@<TRIPOS>BOND
   1    1    2 ar
   2    1   13 1
   3    1    6 ar
   4    2    3 ar
   5    2   24 1
   6    3    4 ar
   7    3   14 1
   8    4    5 ar
   9    4    7 1
  10    5    6 ar
  11    5    9 1
  12    6   25 1
  13    7    8 1
  14    7   10 2
  15    8    9 1
  16    8   11 2
  17   11   12 1
  18   11   26 1
  19   12   15 ar
  20   12   19 ar
  21   13   27 1
  22   14   28 1
  23   15   16 ar
  24   15   29 1
  25   16   17 ar
  26   16   30 1
  27   17   18 ar
  28   17   20 1
  29   18   19 ar
  30   18   31 1
  31   19   32 1
  32   20   21 1
  33   20   22 1
  34   20   23 1

#	End of record

