#	Name: ASD01911275
#	Creating user name:	WinNT
#	Creation time:	15. 06. 2019 19:57

#	Modifying user name:	WinNT
#	Modification time:	15. 06. 2019 19:57

#	Program:	/corina/corina34_cracker 3.40 0067  02.08.2006

@<TRIPOS>MOLECULE
ASD01911275
  38   41    0    0    0
SMALL
NO_CHARGES


@<TRIPOS>ATOM
   1 C1            -0.0189     1.5390     0.0105 C.3     
   2 C2             0.0021    -0.0041     0.0020 C.3     
   3 N3             1.3027    -0.4200    -0.5430 N.am    
   4 C4             2.0751     0.7854    -0.8949 C.3     
   5 C5             1.4884     1.9071    -0.0019 C.3     
   6 C6             1.7200    -1.6925    -0.6949 C.2     
   7 O7             2.8219    -1.9202    -1.1587 O.2     
   8 C8             0.8467    -2.8021    -0.3017 C.2     
   9 C9             3.5361     0.5805    -0.5874 C.2     
  10 N10            4.5463     0.9173    -1.3500 N.2     
  11 C11            5.6543     0.5437    -0.6710 C.2     
  12 N12            5.2557     0.0071     0.4529 N.2     
  13 O13            4.0447     0.0260     0.5174 O.3     
  14 C14            7.0597     0.7108    -1.1179 C.ar    
  15 C15            8.1068     0.2755    -0.3087 C.ar    
  16 C16            9.4127     0.4328    -0.7280 C.ar    
  17 C17            9.6837     1.0213    -1.9493 C.ar    
  18 C18            8.6470     1.4569    -2.7589 C.ar    
  19 C19            7.3359     1.2982    -2.3506 C.ar    
  20 F20            8.9176     2.0321    -3.9510 F       
  21 C21            1.1553    -4.1292    -0.4063 C.2     
  22 C22            0.1515    -4.9574     0.0368 C.2     
  23 C23           -0.9420    -4.3324     0.4890 C.2     
  24 S24           -0.7627    -2.6387     0.3873 S.3     
  25 H25           -0.5169     1.9228    -0.8798 H       
  26 H26           -0.4998     1.9132     0.9143 H       
  27 H27           -0.1121    -0.3819     1.0180 H       
  28 H28           -0.8023    -0.3822    -0.6289 H       
  29 H29            1.9388     1.0291    -1.9485 H       
  30 H30            1.6475     2.8874    -0.4510 H       
  31 H31            1.9087     1.8665     1.0030 H       
  32 H32            7.8972    -0.1842     0.6459 H       
  33 H33           10.2244     0.0956    -0.1004 H       
  34 H34           10.7068     1.1423    -2.2733 H       
  35 H35            6.5277     1.6377    -2.9815 H       
  36 H36            2.0941    -4.4913    -0.7985 H       
  37 H37            0.2388    -6.0337     0.0207 H       
  38 H38           -1.8192    -4.8332     0.8712 H       
@<TRIPOS>BOND
   1    1    2 1
   2    1    5 1
   3    1   25 1
   4    1   26 1
   5    2    3 1
   6    2   27 1
   7    2   28 1
   8    3    4 1
   9    3    6 am
  10    4    5 1
  11    4    9 1
  12    4   29 1
  13    5   30 1
  14    5   31 1
  15    6    7 2
  16    6    8 1
  17    8   21 2
  18    8   24 1
  19    9   10 2
  20    9   13 1
  21   10   11 1
  22   11   12 2
  23   11   14 1
  24   12   13 1
  25   14   15 ar
  26   14   19 ar
  27   15   16 ar
  28   15   32 1
  29   16   17 ar
  30   16   33 1
  31   17   18 ar
  32   17   34 1
  33   18   19 ar
  34   18   20 1
  35   19   35 1
  36   21   22 1
  37   21   36 1
  38   22   23 2
  39   22   37 1
  40   23   24 1
  41   23   38 1

#	End of record

