#	Name: ASD01001070
#	Creating user name:	WinNT
#	Creation time:	15. 06. 2019 18:55

#	Modifying user name:	WinNT
#	Modification time:	15. 06. 2019 18:55

#	Program:	/corina/corina34_cracker 3.40 0067  02.08.2006

@<TRIPOS>MOLECULE
ASD01001070
  36   38    0    0    0
SMALL
NO_CHARGES


@<TRIPOS>ATOM
   1 C1            -0.0166     1.3749     0.0096 C.ar    
   2 C2             0.0021    -0.0041     0.0020 C.ar    
   3 C3             1.1854     2.0866     0.0019 C.ar    
   4 C4             1.2078    -0.6835    -0.0127 C.ar    
   5 C5             2.3994     1.3944    -0.0134 C.ar    
   6 C6             1.1734     3.5612     0.0095 C.2     
   7 C7             2.4024     0.0138    -0.0203 C.ar    
   8 N8             2.2193     4.3130     0.0030 N.2     
   9 N9             1.9395     5.6780     0.0122 N.am    
  10 C10            0.4798     5.8643     0.0270 C.3     
  11 C11           -0.0685     4.4235     0.0194 C.3     
  12 C12            2.8559     6.6662     0.0088 C.2     
  13 C13            0.0509     6.5936     1.2741 C.ar    
  14 C14           -0.9582     7.5362     1.2109 C.ar    
  15 C15           -1.3517     8.2053     2.3548 C.ar    
  16 C16           -0.7363     7.9314     3.5619 C.ar    
  17 C17            0.2722     6.9881     3.6252 C.ar    
  18 C18            0.6627     6.3159     2.4821 C.ar    
  19 C19            4.3251     6.3313    -0.0066 C.3     
  20 O20            2.4981     7.8253     0.0180 O.2     
  21 Br21           4.0334     2.3461    -0.0239 Br      
  22 H22           -0.9585     1.9033     0.0169 H       
  23 H23           -0.9266    -0.5553     0.0079 H       
  24 H24            1.2160    -1.7634    -0.0178 H       
  25 H25            3.3395    -0.5229    -0.0315 H       
  26 H26            0.1524     6.4003    -0.8639 H       
  27 H27           -0.6695     4.2479    -0.8728 H       
  28 H28           -0.6533     4.2322     0.9192 H       
  29 H29           -1.4390     7.7502     0.2678 H       
  30 H30           -2.1396     8.9423     2.3053 H       
  31 H31           -1.0432     8.4546     4.4555 H       
  32 H32            0.7533     6.7743     4.5683 H       
  33 H33            1.4506     5.5789     2.5316 H       
  34 H34            4.5569     5.7541    -0.9017 H       
  35 H35            4.9078     7.2525    -0.0072 H       
  36 H36            4.5734     5.7450     0.8781 H       
@<TRIPOS>BOND
   1    1    2 ar
   2    1    3 ar
   3    1   22 1
   4    2    4 ar
   5    2   23 1
   6    3    6 1
   7    3    5 ar
   8    4    7 ar
   9    4   24 1
  10    5   21 1
  11    5    7 ar
  12    6    8 2
  13    6   11 1
  14    7   25 1
  15    8    9 1
  16    9   10 1
  17    9   12 am
  18   10   11 1
  19   10   13 1
  20   10   26 1
  21   11   27 1
  22   11   28 1
  23   12   19 1
  24   12   20 2
  25   13   14 ar
  26   13   18 ar
  27   14   15 ar
  28   14   29 1
  29   15   16 ar
  30   15   30 1
  31   16   17 ar
  32   16   31 1
  33   17   18 ar
  34   17   32 1
  35   18   33 1
  36   19   34 1
  37   19   35 1
  38   19   36 1

#	End of record

