#	Name: ASD03091557
#	Creating user name:	WinNT
#	Creation time:	15. 06. 2019 20:30

#	Modifying user name:	WinNT
#	Modification time:	15. 06. 2019 20:30

#	Program:	/corina/corina34_cracker 3.40 0067  02.08.2006

@<TRIPOS>MOLECULE
ASD03091557
  40   43    0    0    0
SMALL
NO_CHARGES


@<TRIPOS>ATOM
   1 C1            -0.0170     1.4030     0.0098 C.ar    
   2 C2             0.0021    -0.0041     0.0020 C.ar    
   3 C3             1.2252    -0.6648    -0.0132 C.ar    
   4 C4             2.3967     0.0606    -0.0205 C.ar    
   5 C5             2.3720     1.4487    -0.0128 C.ar    
   6 C6             1.1821     2.1198     0.0022 C.ar    
   7 O7            -1.2763    -0.4288     0.0119 O.3     
   8 C8            -2.1299     0.6164     0.0257 C.2     
   9 C9            -1.4299     1.7801     0.0311 C.2     
  10 C10           -3.5958     0.5111     0.0387 C.2     
  11 O11           -4.2779     1.5183     0.0502 O.2     
  12 N12           -4.1844    -0.7014     0.0378 N.am    
  13 N13           -6.8759    -1.9602     1.8258 N.3     
  14 C14           -6.1531    -0.7252     1.4933 C.3     
  15 C15           -5.6456    -0.8064     0.0507 C.3     
  16 C16           -6.0694    -2.1534    -0.5480 C.3     
  17 C17           -7.5992    -2.2526    -0.4951 C.3     
  18 C18           -8.0525    -2.1320     0.9625 C.3     
  19 C19           -5.9891    -3.1290     1.7447 C.3     
  20 C20           -5.4762    -3.2783     0.3096 C.3     
  21 N21            3.6434     2.2067    -0.0203 N.pl3   
  22 O22            4.7066     1.6125    -0.0332 O.2     
  23 O23            3.6265     3.4245    -0.0136 O.2     
  24 H24            1.2571    -1.7443    -0.0189 H       
  25 H25            3.3448    -0.4565    -0.0319 H       
  26 H26            1.1685     3.1997     0.0077 H       
  27 H27           -1.8346     2.7814     0.0423 H       
  28 H28           -3.6405    -1.5045     0.0286 H       
  29 H29           -6.8243     0.1276     1.5952 H       
  30 H30           -5.3072    -0.6054     2.1702 H       
  31 H31           -6.0772     0.0055    -0.5346 H       
  32 H32           -5.7242    -2.2306    -1.5790 H       
  33 H33           -8.0380    -1.4457    -1.0820 H       
  34 H34           -7.9170    -3.2143    -0.8980 H       
  35 H35           -8.5878    -3.0360     1.2529 H       
  36 H36           -8.7105    -1.2694     1.0686 H       
  37 H37           -5.1447    -2.9924     2.4203 H       
  38 H38           -6.5412    -4.0249     2.0287 H       
  39 H39           -5.7855    -4.2441    -0.0900 H       
  40 H40           -4.3885    -3.2090     0.3014 H       
@<TRIPOS>BOND
   1    1    2 ar
   2    1    6 ar
   3    1    9 1
   4    2    3 ar
   5    2    7 1
   6    3    4 ar
   7    3   24 1
   8    4    5 ar
   9    4   25 1
  10    5    6 ar
  11    5   21 1
  12    6   26 1
  13    7    8 1
  14    8    9 2
  15    8   10 1
  16    9   27 1
  17   10   11 2
  18   10   12 am
  19   12   15 1
  20   12   28 1
  21   13   14 1
  22   13   18 1
  23   13   19 1
  24   14   15 1
  25   14   29 1
  26   14   30 1
  27   15   16 1
  28   15   31 1
  29   16   17 1
  30   16   20 1
  31   16   32 1
  32   17   18 1
  33   17   33 1
  34   17   34 1
  35   18   35 1
  36   18   36 1
  37   19   20 1
  38   19   37 1
  39   19   38 1
  40   20   39 1
  41   20   40 1
  42   21   22 2
  43   21   23 2

#	End of record

