#	Name: ASD00600005
#	Creating user name:	WinNT
#	Creation time:	15. 06. 2019 18:36

#	Modifying user name:	WinNT
#	Modification time:	15. 06. 2019 18:36

#	Program:	/corina/corina34_cracker 3.40 0067  02.08.2006

@<TRIPOS>MOLECULE
ASD00600005
  85   89    0    0    0
SMALL
NO_CHARGES


@<TRIPOS>ATOM
   1 C1             0.8894     1.2711     1.6179 C.ar    
   2 C2             0.4248     0.8709     0.3616 C.ar    
   3 C3             1.1059     1.2716    -0.7916 C.ar    
   4 C4             2.2308     2.0583    -0.6859 C.ar    
   5 C5             2.6898     2.4539     0.5655 C.ar    
   6 C6             2.0150     2.0578     1.7149 C.ar    
   7 O7             3.7991     3.2288     0.6654 O.3     
   8 C8             3.6782     4.5541     0.3908 C.ar    
   9 C9             4.8037     5.3655     0.3721 C.ar    
  10 C10            4.6781     6.7124     0.0921 C.ar    
  11 C11            3.4322     7.2523    -0.1688 C.ar    
  12 C12            2.3091     6.4460    -0.1508 C.ar    
  13 C13            2.4298     5.0974     0.1229 C.ar    
  14 C14            3.2981     8.7222    -0.4729 C.3     
  15 N15            3.4228     8.9360    -1.9209 N.3     
  16 C16            3.0642    10.3133    -2.2823 C.3     
  17 C17            3.3404    10.5406    -3.7699 C.3     
  18 C18            2.5099     9.5497    -4.5948 C.3     
  19 C19            2.8773     8.1236    -4.1668 C.3     
  20 C20            2.6145     7.9640    -2.6680 C.3     
  21 C21            1.0510     9.7864    -4.3315 C.2     
  22 N22            0.1230     9.7262    -5.2903 N.am    
  23 C23            0.4398     9.4264    -6.6801 C.3     
  24 C24            1.8910     9.6673    -6.9690 C.2     
  25 N25            2.8193     9.7231    -6.0100 N.am    
  26 C26            0.1084     7.9602    -6.9651 C.3     
  27 C27           -1.3632     7.6973    -6.6392 C.3     
  28 C28           -2.2472     8.5688    -7.5337 C.3     
  29 C29           -3.7188     8.3060    -7.2078 C.3     
  30 C30           -4.0403     6.8307    -7.4551 C.3     
  31 C31           -3.1564     5.9592    -6.5606 C.3     
  32 C32           -1.6847     6.2221    -6.8865 C.3     
  33 O33            2.2367     9.8178    -8.1217 O.2     
  34 O34            0.6999    10.0429    -3.1993 O.2     
  35 C35            4.2106     9.9696    -6.3967 C.3     
  36 C36            4.4785    11.4760    -6.4046 C.3     
  37 C37            5.9316    11.7334    -6.8086 C.3     
  38 C38            6.1996    13.2398    -6.8164 C.3     
  39 H39           -0.1638    10.0608    -7.3291 H       
  40 O40            0.3486     7.6770    -8.3450 O.3     
  41 C41           -0.7802     0.0278     0.2531 C.2     
  42 O42           -1.3708    -0.3199     1.2565 O.2     
  43 O43           -1.2265    -0.3569    -0.9587 O.3     
  44 H44            0.3634     0.9673     2.5109 H       
  45 H45            0.7504     0.9643    -1.7639 H       
  46 H46            2.7576     2.3684    -1.5762 H       
  47 H47            2.3748     2.3672     2.6850 H       
  48 H48            5.7770     4.9444     0.5765 H       
  49 H49            5.5538     7.3443     0.0774 H       
  50 H50            1.3371     6.8701    -0.3550 H       
  51 H51            1.5523     4.4679     0.1365 H       
  52 H52            2.3235     9.0754    -0.1361 H       
  53 H53            4.0832     9.2734     0.0447 H       
  54 H54            2.0059    10.4779    -2.0802 H       
  55 H55            3.6591    11.0102    -1.6919 H       
  56 H56            3.0646    11.5600    -4.0398 H       
  57 H57            4.4001    10.3839    -3.9715 H       
  58 H58            2.2691     7.4090    -4.7212 H       
  59 H59            3.9322     7.9420    -4.3728 H       
  60 H60            2.8828     6.9540    -2.3578 H       
  61 H61            1.5579     8.1374    -2.4641 H       
  62 H62           -0.8027     9.8890    -5.0505 H       
  63 H63            0.7374     7.3188    -6.3477 H       
  64 H64           -1.5529     7.9402    -5.5937 H       
  65 H65           -2.0181     9.6198    -7.3575 H       
  66 H66           -2.0576     8.3259    -8.5792 H       
  67 H67           -3.9084     8.5489    -6.1623 H       
  68 H68           -4.3485     8.9268    -7.8451 H       
  69 H69           -5.0887     6.6435    -7.2229 H       
  70 H70           -3.8507     6.5878    -8.5006 H       
  71 H71           -3.3460     6.2021    -5.5151 H       
  72 H72           -3.3854     4.9082    -6.7368 H       
  73 H73           -1.4951     5.9792    -7.9320 H       
  74 H74           -1.0550     5.6012    -6.2492 H       
  75 H75            4.8773     9.4857    -5.6830 H       
  76 H76            4.3882     9.5638    -7.3927 H       
  77 H77            3.8118    11.9599    -7.1184 H       
  78 H78            4.3009    11.8818    -5.4087 H       
  79 H79            6.5983    11.2495    -6.0948 H       
  80 H80            6.1093    11.3276    -7.8045 H       
  81 H81            5.5329    13.7236    -7.5302 H       
  82 H82            6.0219    13.6456    -5.8205 H       
  83 H83            7.2348    13.4232    -7.1042 H       
  84 H84           -0.1785     8.2122    -8.9539 H       
  85 H85           -2.0201    -0.9090    -0.9794 H       
@<TRIPOS>BOND
   1    1    2 ar
   2    1    6 ar
   3    1   44 1
   4    2    3 ar
   5    2   41 1
   6    3    4 ar
   7    3   45 1
   8    4    5 ar
   9    4   46 1
  10    5    6 ar
  11    5    7 1
  12    6   47 1
  13    7    8 1
  14    8    9 ar
  15    8   13 ar
  16    9   10 ar
  17    9   48 1
  18   10   11 ar
  19   10   49 1
  20   11   12 ar
  21   11   14 1
  22   12   13 ar
  23   12   50 1
  24   13   51 1
  25   14   15 1
  26   14   52 1
  27   14   53 1
  28   15   16 1
  29   15   20 1
  30   16   17 1
  31   16   54 1
  32   16   55 1
  33   17   18 1
  34   17   56 1
  35   17   57 1
  36   18   19 1
  37   18   21 1
  38   18   25 1
  39   19   20 1
  40   19   58 1
  41   19   59 1
  42   20   60 1
  43   20   61 1
  44   21   22 am
  45   21   34 2
  46   22   23 1
  47   22   62 1
  48   23   24 1
  49   23   26 1
  50   23   39 1
  51   24   25 am
  52   24   33 2
  53   25   35 1
  54   26   27 1
  55   26   40 1
  56   26   63 1
  57   27   28 1
  58   27   32 1
  59   27   64 1
  60   28   29 1
  61   28   65 1
  62   28   66 1
  63   29   30 1
  64   29   67 1
  65   29   68 1
  66   30   31 1
  67   30   69 1
  68   30   70 1
  69   31   32 1
  70   31   71 1
  71   31   72 1
  72   32   73 1
  73   32   74 1
  74   35   36 1
  75   35   75 1
  76   35   76 1
  77   36   37 1
  78   36   77 1
  79   36   78 1
  80   37   38 1
  81   37   79 1
  82   37   80 1
  83   38   81 1
  84   38   82 1
  85   38   83 1
  86   40   84 1
  87   41   42 2
  88   41   43 1
  89   43   85 1

#	End of record

