#	Name: ASD01028263
#	Creating user name:	WinNT
#	Creation time:	15. 06. 2019 18:56

#	Modifying user name:	WinNT
#	Modification time:	15. 06. 2019 18:56

#	Program:	/corina/corina34_cracker 3.40 0067  02.08.2006

@<TRIPOS>MOLECULE
ASD01028263
  43   47    0    0    0
SMALL
NO_CHARGES


@<TRIPOS>ATOM
   1 C1            -0.0184     1.5028     0.0103 C.3     
   2 C2             0.0021    -0.0041     0.0020 C.2     
   3 N3            -0.5233    -0.8138     0.9472 N.pl3   
   4 C4            -0.2730    -2.0987     0.5278 C.2     
   5 N5             0.3754    -2.0066    -0.6218 N.2     
   6 N6             0.5275    -0.7649    -0.9257 N.2     
   7 N7            -1.2024    -0.5881     2.1462 N.2     
   8 C8            -1.6080    -1.6001     2.8838 C.2     
   9 C9            -1.3655    -2.9316     2.4790 C.2     
  10 C10           -0.7078    -3.1810     1.3168 C.2     
  11 C11           -2.3252    -1.3402     4.1506 C.2     
  12 C12            1.3954     2.0244    -0.0004 C.ar    
  13 C13            2.2400     1.6995    -1.0597 C.ar    
  14 C14            3.5225     2.1536    -1.1001 C.ar    
  15 C15            4.0085     2.9640    -0.0597 C.ar    
  16 C16            3.1475     3.2935     1.0166 C.ar    
  17 C17            1.8289     2.8116     1.0227 C.ar    
  18 N18            5.2637     3.4240    -0.0722 N.ar    
  19 C19            5.7221     4.1798     0.8957 C.ar    
  20 C20            4.9285     4.5410     1.9825 C.ar    
  21 C21            3.6362     4.1054     2.0576 C.ar    
  22 C22           -0.7584     2.0096    -1.2292 C.3     
  23 S23           -2.9616    -2.5282     5.3019 S.3     
  24 N24           -3.5830    -1.3774     6.3831 N.2     
  25 C25           -3.3212    -0.2003     5.8968 C.2     
  26 C26           -2.6440    -0.1204     4.7051 C.2     
  27 C27           -3.7463     1.0475     6.6270 C.3     
  28 H28           -0.5286     1.8543     0.9071 H       
  29 H29           -1.7039    -3.7523     3.0940 H       
  30 H30           -0.5199    -4.1969     1.0022 H       
  31 H31            1.8712     1.0771    -1.8615 H       
  32 H32            4.1643     1.8918    -1.9283 H       
  33 H33            1.1647     3.0570     1.8382 H       
  34 H34            6.7421     4.5317     0.8498 H       
  35 H35            5.3347     5.1651     2.7647 H       
  36 H36            3.0071     4.3756     2.8928 H       
  37 H37           -1.7809     1.6323    -1.2215 H       
  38 H38           -0.7731     3.0995    -1.2232 H       
  39 H39           -0.2482     1.6581    -2.1260 H       
  40 H40           -2.3900     0.8195     4.2377 H       
  41 H41           -2.9536     1.3581     7.3076 H       
  42 H42           -3.9388     1.8424     5.9065 H       
  43 H43           -4.6542     0.8445     7.1952 H       
@<TRIPOS>BOND
   1    1    2 1
   2    1   12 1
   3    1   22 1
   4    1   28 1
   5    2    3 1
   6    2    6 2
   7    3    4 1
   8    3    7 1
   9    4    5 2
  10    4   10 1
  11    5    6 1
  12    7    8 2
  13    8    9 1
  14    8   11 1
  15    9   10 2
  16    9   29 1
  17   10   30 1
  18   11   23 1
  19   11   26 2
  20   12   13 ar
  21   12   17 ar
  22   13   14 ar
  23   13   31 1
  24   14   15 ar
  25   14   32 1
  26   15   16 ar
  27   15   18 ar
  28   16   17 ar
  29   16   21 ar
  30   17   33 1
  31   18   19 ar
  32   19   20 ar
  33   19   34 1
  34   20   21 ar
  35   20   35 1
  36   21   36 1
  37   22   37 1
  38   22   38 1
  39   22   39 1
  40   23   24 1
  41   24   25 2
  42   25   26 1
  43   25   27 1
  44   26   40 1
  45   27   41 1
  46   27   42 1
  47   27   43 1

#	End of record

