#	Name: ASD01881746
#	Creating user name:	WinNT
#	Creation time:	15. 06. 2019 19:43

#	Modifying user name:	WinNT
#	Modification time:	15. 06. 2019 19:43

#	Program:	/corina/corina34_cracker 3.40 0067  02.08.2006

@<TRIPOS>MOLECULE
ASD01881746
  37   40    0    0    0
SMALL
NO_CHARGES


@<TRIPOS>ATOM
   1 N1            -0.0154     1.2839     0.0091 N.pl3   
   2 N2             0.0021    -0.0041     0.0020 N.2     
   3 N3             1.2033    -0.4649    -0.0119 N.2     
   4 C4             2.0741     0.5645    -0.0147 C.ar    
   5 C5             1.2843     1.7298    -0.0009 C.ar    
   6 C6             3.4670     0.6759    -0.0271 C.ar    
   7 C7             4.0484     1.9285    -0.0255 C.ar    
   8 C8             3.2560     3.0739    -0.0118 C.ar    
   9 C9             1.8924     2.9784    -0.0004 C.ar    
  10 O10            5.4033     2.0444    -0.0370 O.3     
  11 C11            5.9411     3.3683    -0.0346 C.3     
  12 O12            7.9447     2.5916     1.1175 O.3     
  13 C13            7.4694     3.2979    -0.0487 C.3     
  14 O14            7.9191     2.5417    -1.1859 O.3     
  15 C15            9.0841     1.8060    -0.7711 C.3     
  16 C16            9.2673     2.1524     0.7230 C.3     
  17 C17           -1.2133     2.1272     0.0196 C.3     
  18 C18           -1.6228     2.4135     1.4657 C.3     
  19 C19           -2.7884     3.3784     1.6921 C.3     
  20 C20           -2.9777     1.8797     1.9352 C.3     
  21 Br21           4.5472    -0.8761    -0.0451 Br      
  22 H22            3.7236     4.0474    -0.0103 H       
  23 H23            1.2882     3.8735     0.0099 H       
  24 H24            5.5939     3.9031    -0.9187 H       
  25 H25            5.6098     3.8935     0.8612 H       
  26 H26            7.8904     4.3030    -0.0755 H       
  27 H27            8.9195     0.7356    -0.8940 H       
  28 H28            9.9560     2.1239    -1.3429 H       
  29 H29            9.9934     2.9559     0.8465 H       
  30 H30            9.5660     1.2705     1.2896 H       
  31 H31           -1.0007     3.0667    -0.4906 H       
  32 H32           -2.0254     1.6113    -0.4926 H       
  33 H33           -0.8089     2.4286     2.1906 H       
  34 H34           -2.7415     4.0280     2.5661 H       
  35 H35           -3.2635     3.8093     0.8108 H       
  36 H36           -3.5773     1.3246     1.2137 H       
  37 H37           -3.0553     1.5434     2.9691 H       
@<TRIPOS>BOND
   1    1    2 1
   2    1    5 1
   3    1   17 1
   4    2    3 2
   5    3    4 1
   6    4    5 ar
   7    4    6 ar
   8    5    9 ar
   9    6    7 ar
  10    6   21 1
  11    7    8 ar
  12    7   10 1
  13    8    9 ar
  14    8   22 1
  15    9   23 1
  16   10   11 1
  17   11   13 1
  18   11   24 1
  19   11   25 1
  20   12   13 1
  21   12   16 1
  22   13   14 1
  23   13   26 1
  24   14   15 1
  25   15   16 1
  26   15   27 1
  27   15   28 1
  28   16   29 1
  29   16   30 1
  30   17   18 1
  31   17   31 1
  32   17   32 1
  33   18   19 1
  34   18   20 1
  35   18   33 1
  36   19   20 1
  37   19   34 1
  38   19   35 1
  39   20   36 1
  40   20   37 1

#	End of record

