#	Name: ASD04910265
#	Creating user name:	WinNT
#	Creation time:	15. 06. 2019 20:55

#	Modifying user name:	WinNT
#	Modification time:	15. 06. 2019 20:55

#	Program:	/corina/corina34_cracker 3.40 0067  02.08.2006

@<TRIPOS>MOLECULE
ASD04910265
  63   65    0    0    0
SMALL
NO_CHARGES


@<TRIPOS>ATOM
   1 C1            -1.6009     1.0756     0.0763 C.2     
   2 C2            -1.3481    -0.4099     0.0591 C.3     
   3 C3             0.1594    -0.6705     0.0385 C.3     
   4 O4            -0.6707     1.8468     0.0726 O.2     
   5 O5            -2.8594     1.5422     0.0903 O.3     
   6 C6             1.6687    -2.5830     0.0021 C.2     
   7 C7             1.9167    -4.0405    -0.0148 C.ar    
   8 C8             3.2241    -4.5288    -0.0352 C.ar    
   9 C9             3.4486    -5.8899    -0.0504 C.ar    
  10 C10            2.3812    -6.7703    -0.0461 C.ar    
  11 C11            1.0828    -6.2927    -0.0260 C.ar    
  12 C12            0.8445    -4.9340    -0.0047 C.ar    
  13 O13            2.6045    -1.8072    -0.0016 O.2     
  14 N14            0.4051    -2.1147     0.0217 N.am    
  15 C15            2.1305    -8.8744     1.2418 C.3     
  16 C16            2.6339    -8.2558    -0.0638 C.3     
  17 C17            1.8931    -8.8851    -1.2454 C.3     
  18 C18            2.4834    -8.3600    -2.5556 C.3     
  19 C19            3.9257    -8.8503    -2.6978 C.3     
  20 C20            2.4927   -10.3368     1.2772 C.ar    
  21 C21            3.6990   -10.7358     1.8229 C.ar    
  22 C22            4.0339   -12.0753     1.8568 C.ar    
  23 C23            3.1577   -13.0217     1.3428 C.ar    
  24 C24            1.9470   -12.6181     0.7959 C.ar    
  25 C25            1.6157   -11.2775     0.7692 C.ar    
  26 N26            3.4949   -14.3820     1.3753 N.pl3   
  27 N27            4.6766   -14.9262     1.8947 N.2     
  28 C28            4.6280   -16.2257     1.7470 C.2     
  29 C29            3.4154   -16.5514     1.1296 C.2     
  30 C30            2.7345   -15.4016     0.9163 C.2     
  31 C31            2.9476   -17.9383     0.7708 C.3     
  32 F32            3.9184   -18.8709     1.1517 F       
  33 F33            1.7493   -18.2135     1.4383 F       
  34 F34            2.7410   -18.0180    -0.6105 F       
  35 C35            1.6515    -8.8745    -3.7321 C.3     
  36 H36           -1.7830    -0.8629     0.9500 H       
  37 H37           -1.8043    -0.8458    -0.8298 H       
  38 H38            0.5943    -0.2176    -0.8524 H       
  39 H39            0.6156    -0.2347     0.9273 H       
  40 H40           -2.9715     2.5026     0.1011 H       
  41 H41            4.0581    -3.8427    -0.0393 H       
  42 H42            4.4597    -6.2691    -0.0662 H       
  43 H43            0.2540    -6.9852    -0.0227 H       
  44 H44           -0.1694    -4.5626     0.0155 H       
  45 H45           -0.3416    -2.7338     0.0247 H       
  46 H46            2.5928    -8.3650     2.0872 H       
  47 H47            1.0474    -8.7669     1.3008 H       
  48 H48            3.7033    -8.4412    -0.1651 H       
  49 H49            2.0016    -9.9690    -1.2066 H       
  50 H50            0.8362    -8.6236    -1.1924 H       
  51 H51            2.4690    -7.2701    -2.5496 H       
  52 H52            3.9401    -9.9402    -2.7039 H       
  53 H53            4.3462    -8.4762    -3.6313 H       
  54 H54            4.5184    -8.4837    -1.8596 H       
  55 H55            4.3802    -9.9992     2.2227 H       
  56 H56            4.9765   -12.3863     2.2825 H       
  57 H57            1.2634   -13.3519     0.3953 H       
  58 H58            0.6724   -10.9632     0.3474 H       
  59 H59            5.3926   -16.9261     2.0492 H       
  60 H60            1.7598   -15.3139     0.4594 H       
  61 H61            0.6474    -8.4538    -3.6786 H       
  62 H62            2.1218    -8.5743    -4.6685 H       
  63 H63            1.5926    -9.9620    -3.6874 H       
@<TRIPOS>BOND
   1    1    2 1
   2    1    4 2
   3    1    5 1
   4    2    3 1
   5    2   36 1
   6    2   37 1
   7    3   14 1
   8    3   38 1
   9    3   39 1
  10    5   40 1
  11    6    7 1
  12    6   13 2
  13    6   14 am
  14    7    8 ar
  15    7   12 ar
  16    8    9 ar
  17    8   41 1
  18    9   10 ar
  19    9   42 1
  20   10   11 ar
  21   10   16 1
  22   11   12 ar
  23   11   43 1
  24   12   44 1
  25   14   45 1
  26   15   16 1
  27   15   20 1
  28   15   46 1
  29   15   47 1
  30   16   17 1
  31   16   48 1
  32   17   18 1
  33   17   49 1
  34   17   50 1
  35   18   19 1
  36   18   35 1
  37   18   51 1
  38   19   52 1
  39   19   53 1
  40   19   54 1
  41   20   21 ar
  42   20   25 ar
  43   21   22 ar
  44   21   55 1
  45   22   23 ar
  46   22   56 1
  47   23   24 ar
  48   23   26 1
  49   24   25 ar
  50   24   57 1
  51   25   58 1
  52   26   27 1
  53   26   30 1
  54   27   28 2
  55   28   29 1
  56   28   59 1
  57   29   30 2
  58   29   31 1
  59   30   60 1
  60   31   32 1
  61   31   33 1
  62   31   34 1
  63   35   61 1
  64   35   62 1
  65   35   63 1

#	End of record

