#	Name: ASD04990003
#	Creating user name:	WinNT
#	Creation time:	15. 06. 2019 20:56

#	Modifying user name:	WinNT
#	Modification time:	15. 06. 2019 20:56

#	Program:	/corina/corina34_cracker 3.40 0067  02.08.2006

@<TRIPOS>MOLECULE
ASD04990003
 103  104    0    0    0
SMALL
NO_CHARGES


@<TRIPOS>ATOM
   1 C1             0.0061     0.9054     3.5956 C.2     
   2 O2            -0.0741    -0.2810     3.8342 O.2     
   3 N3             1.1671     1.5575     3.8032 N.am    
   4 C4             1.4012     2.9930     3.5624 C.3     
   5 C5             0.1773     3.7926     3.9280 C.2     
   6 O6            -0.6692     3.3097     4.6500 O.2     
   7 C7             2.5843     3.3631     4.4915 C.3     
   8 C8             3.4579     2.0836     4.4082 C.3     
   9 C9             2.4082     0.9565     4.3133 C.3     
  10 N10            0.0232     5.0442     3.4524 N.am    
  11 C11           -1.1667     5.8215     3.8078 C.3     
  12 C12           -0.8548     7.2923     3.7056 C.2     
  13 O13            0.2523     7.6556     3.3691 O.2     
  14 C14           -2.3076     5.4743     2.8494 C.3     
  15 C15           -1.8458     5.6909     1.4069 C.3     
  16 C16           -2.7080     4.0103     3.0423 C.3     
  17 N17           -1.8063     8.2041     3.9882 N.am    
  18 C18           -1.5031     9.6340     3.8889 C.3     
  19 C19           -2.7764    10.4015     3.6422 C.2     
  20 O20           -3.8330     9.8121     3.5576 O.2     
  21 C21           -0.8645    10.1118     5.1945 C.3     
  22 C22            0.4685     9.4336     5.3793 C.ar    
  23 C23            0.5415     8.2260     6.0488 C.ar    
  24 C24            1.6157    10.0171     4.8742 C.ar    
  25 C25            1.7622     7.6020     6.2191 C.ar    
  26 C26            2.8388     9.3971     5.0419 C.ar    
  27 C27            2.9154     8.1880     5.7178 C.ar    
  28 O28            4.1174     7.5762     5.8841 O.3     
  29 N29           -2.7409    11.7428     3.5155 N.am    
  30 C30           -3.9787    12.4889     3.2756 C.3     
  31 C31           -3.8156    13.9040     3.7677 C.2     
  32 O32           -2.7062    14.3563     3.9562 O.2     
  33 C33           -4.2838    12.5022     1.7764 C.3     
  34 C34           -4.5431    11.0729     1.2961 C.3     
  35 C35           -5.5232    13.3605     1.5158 C.3     
  36 C36           -3.0902    13.0865     1.0182 C.3     
  37 N37           -4.9025    14.6668     3.9981 N.am    
  38 C38           -4.7499    16.0029     4.5793 C.3     
  39 C39           -5.9267    16.8587     4.1870 C.2     
  40 O40           -6.8062    16.3980     3.4906 O.2     
  41 C41           -4.6859    15.8916     6.1039 C.3     
  42 C42           -3.4228    15.1282     6.5070 C.3     
  43 C43           -3.3597    15.0186     8.0087 C.2     
  44 N44           -2.3267    14.3818     8.5951 N.am    
  45 O45           -4.2386    15.5033     8.6895 O.2     
  46 N46           -6.0017    18.1361     4.6102 N.am    
  47 C47           -7.1456    18.9681     4.2288 C.3     
  48 C48           -7.6501    19.7338     5.4536 C.3     
  49 P49           -6.6334    20.1519     2.9406 P.3     
  50 O50           -8.0283    20.8631     2.5658 O.3     
  51 O51           -5.8984    21.2925     3.8072 O.3     
  52 H52           -0.8517     1.4383     3.2126 H       
  53 H53            1.6697     3.1640     2.5199 H       
  54 H54            3.1239     4.2301     4.1104 H       
  55 H55            2.2408     3.5360     5.5114 H       
  56 H56            4.0884     2.1043     3.5193 H       
  57 H57            4.0621     1.9699     5.3083 H       
  58 H58            2.2335     0.5260     5.2993 H       
  59 H59            2.7563     0.1853     3.6261 H       
  60 H60            0.7001     5.4304     2.8749 H       
  61 H61           -1.4647     5.5833     4.8288 H       
  62 H62           -3.1642     6.1156     3.0568 H       
  63 H63           -2.6586     5.4435     0.7241 H       
  64 H64           -1.5605     6.7339     1.2695 H       
  65 H65           -0.9892     5.0496     1.1995 H       
  66 H66           -3.0371     3.8560     4.0699 H       
  67 H67           -3.5209     3.7629     2.3595 H       
  68 H68           -1.8514     3.3690     2.8348 H       
  69 H69           -2.6918     7.9136     4.2573 H       
  70 H70           -0.8117     9.8023     3.0633 H       
  71 H71           -0.7203    11.1915     5.1546 H       
  72 H72           -1.5177     9.8631     6.0309 H       
  73 H73           -0.3565     7.7703     6.4391 H       
  74 H74            1.5555    10.9582     4.3478 H       
  75 H75            1.8187     6.6589     6.7424 H       
  76 H76            3.7346     9.8533     4.6471 H       
  77 H77            4.3520     6.9691     5.1689 H       
  78 H78           -1.8958    12.2142     3.5831 H       
  79 H79           -4.8002    12.0111     3.8094 H       
  80 H80           -5.3934    10.6567     1.8362 H       
  81 H81           -4.7604    11.0824     0.2280 H       
  82 H82           -3.6601    10.4614     1.4817 H       
  83 H83           -5.3782    14.3496     1.9505 H       
  84 H84           -5.6802    13.4553     0.4414 H       
  85 H85           -6.3943    12.8883     1.9700 H       
  86 H86           -2.2072    12.4750     1.2039 H       
  87 H87           -3.3076    13.0959    -0.0498 H       
  88 H88           -2.9055    14.1047     1.3605 H       
  89 H89           -5.7859    14.3311     3.7792 H       
  90 H90           -3.8308    16.4572     4.2093 H       
  91 H91           -4.6618    16.8901     6.5404 H       
  92 H92           -5.5644    15.3577     6.4664 H       
  93 H93           -3.4469    14.1297     6.0705 H       
  94 H94           -2.5443    15.6621     6.1445 H       
  95 H95           -1.6238    13.9941     8.0506 H       
  96 H96           -2.2862    14.3113     9.5617 H       
  97 H97           -5.2982    18.5046     5.1672 H       
  98 H98           -7.9436    18.3338     3.8428 H       
  99 H99           -8.5012    20.3529     5.1699 H       
 100 H100          -7.9564    19.0260     6.2239 H       
 101 H101          -6.8521    20.3681     5.8396 H       
 102 H102          -7.9527    21.5404     1.8798 H       
 103 H103          -5.5508    22.0245     3.2796 H       
@<TRIPOS>BOND
   1    1    2 2
   2    1    3 am
   3    1   52 1
   4    3    9 1
   5    3    4 1
   6    4    7 1
   7    4    5 1
   8    4   53 1
   9    5   10 am
  10    5    6 2
  11    7    8 1
  12    7   54 1
  13    7   55 1
  14    8    9 1
  15    8   56 1
  16    8   57 1
  17    9   58 1
  18    9   59 1
  19   10   11 1
  20   10   60 1
  21   11   12 1
  22   11   14 1
  23   11   61 1
  24   12   13 2
  25   12   17 am
  26   14   16 1
  27   14   15 1
  28   14   62 1
  29   15   63 1
  30   15   64 1
  31   15   65 1
  32   16   66 1
  33   16   67 1
  34   16   68 1
  35   17   18 1
  36   17   69 1
  37   18   21 1
  38   18   19 1
  39   18   70 1
  40   19   29 am
  41   19   20 2
  42   21   22 1
  43   21   71 1
  44   21   72 1
  45   22   24 ar
  46   22   23 ar
  47   23   25 ar
  48   23   73 1
  49   24   26 ar
  50   24   74 1
  51   25   27 ar
  52   25   75 1
  53   26   27 ar
  54   26   76 1
  55   27   28 1
  56   28   77 1
  57   29   30 1
  58   29   78 1
  59   30   31 1
  60   30   33 1
  61   30   79 1
  62   31   32 2
  63   31   37 am
  64   33   34 1
  65   33   35 1
  66   33   36 1
  67   34   80 1
  68   34   81 1
  69   34   82 1
  70   35   83 1
  71   35   84 1
  72   35   85 1
  73   36   86 1
  74   36   87 1
  75   36   88 1
  76   37   38 1
  77   37   89 1
  78   38   39 1
  79   38   41 1
  80   38   90 1
  81   39   46 am
  82   39   40 2
  83   41   42 1
  84   41   91 1
  85   41   92 1
  86   42   43 1
  87   42   93 1
  88   42   94 1
  89   43   44 am
  90   43   45 2
  91   44   95 1
  92   44   96 1
  93   46   47 1
  94   46   97 1
  95   47   48 1
  96   47   49 1
  97   47   98 1
  98   48   99 1
  99   48  100 1
 100   48  101 1
 101   49   50 1
 102   49   51 1
 103   50  102 1
 104   51  103 1

#	End of record

