#	Name: ASD01913345
#	Creating user name:	WinNT
#	Creation time:	15. 06. 2019 20:01

#	Modifying user name:	WinNT
#	Modification time:	15. 06. 2019 20:01

#	Program:	/corina/corina34_cracker 3.40 0067  02.08.2006

@<TRIPOS>MOLECULE
ASD01913345
  42   44    0    0    0
SMALL
NO_CHARGES


@<TRIPOS>ATOM
   1 C1            -0.0166     1.3765     0.0096 C.2     
   2 C2             0.0021    -0.0041     0.0020 C.2     
   3 C3             1.2500    -0.6727    -0.0135 C.2     
   4 N4             2.3635     0.0159    -0.0204 N.2     
   5 C5             2.3514     1.3566    -0.0131 C.2     
   6 N6             1.1685     2.0507     0.0019 N.pl3   
   7 C7             3.3711     2.2994    -0.0178 C.2     
   8 C8             2.7831     3.5557    -0.0054 C.2     
   9 N9             1.4768     3.4160     0.0063 N.2     
  10 C10            3.5231     4.8685    -0.0054 C.3     
  11 C11            4.0854     5.1370    -1.4028 C.3     
  12 C12            2.5633     5.9949     0.3832 C.3     
  13 C13            4.6718     4.8065     1.0033 C.3     
  14 C14           -1.2215    -0.7480     0.0102 C.1     
  15 C15           -2.2246    -1.3579     0.0169 C.1     
  16 C16           -3.4482    -2.1018     0.0250 C.ar    
  17 C17           -3.4199    -3.4979     0.0173 C.ar    
  18 C18           -4.6073    -4.2098     0.0252 C.ar    
  19 C19           -5.8215    -3.5365     0.0403 C.ar    
  20 C20           -5.8519    -2.1537     0.0476 C.ar    
  21 C21           -4.6757    -1.4334     0.0466 C.ar    
  22 O22           -4.5844    -5.5686     0.0177 O.3     
  23 C23           -5.8465    -6.2388     0.0265 C.3     
  24 H24           -0.9539     1.9131     0.0170 H       
  25 H25            1.2834    -1.7522    -0.0192 H       
  26 H26            4.4309     2.0919    -0.0287 H       
  27 H27            3.2671     5.1812    -2.1214 H       
  28 H28            4.6206     6.0865    -1.4028 H       
  29 H29            4.7691     4.3345    -1.6796 H       
  30 H30            2.1627     5.8037     1.3787 H       
  31 H31            3.0985     6.9445     0.3832 H       
  32 H32            1.7450     6.0391    -0.3355 H       
  33 H33            5.3555     4.0040     0.7265 H       
  34 H34            5.2070     5.7561     1.0033 H       
  35 H35            4.2712     4.6152     1.9988 H       
  36 H36           -2.4749    -4.0206     0.0047 H       
  37 H37           -6.7460    -4.0948     0.0461 H       
  38 H38           -6.7999    -1.6363     0.0590 H       
  39 H39           -4.7031    -0.3538     0.0526 H       
  40 H40           -6.3995    -5.9601     0.9235 H       
  41 H41           -6.4171    -5.9506    -0.8563 H       
  42 H42           -5.6855    -7.3168     0.0192 H       
@<TRIPOS>BOND
   1    1    2 2
   2    1    6 1
   3    1   24 1
   4    2    3 1
   5    2   14 1
   6    3    4 2
   7    3   25 1
   8    4    5 1
   9    5    6 1
  10    5    7 2
  11    6    9 1
  12    7    8 1
  13    7   26 1
  14    8    9 2
  15    8   10 1
  16   10   11 1
  17   10   12 1
  18   10   13 1
  19   11   27 1
  20   11   28 1
  21   11   29 1
  22   12   30 1
  23   12   31 1
  24   12   32 1
  25   13   33 1
  26   13   34 1
  27   13   35 1
  28   14   15 3
  29   15   16 1
  30   16   17 ar
  31   16   21 ar
  32   17   18 ar
  33   17   36 1
  34   18   19 ar
  35   18   22 1
  36   19   20 ar
  37   19   37 1
  38   20   21 ar
  39   20   38 1
  40   21   39 1
  41   22   23 1
  42   23   40 1
  43   23   41 1
  44   23   42 1

#	End of record

