#	Name: ASD01120014
#	Creating user name:	WinNT
#	Creation time:	15. 06. 2019 18:58

#	Modifying user name:	WinNT
#	Modification time:	15. 06. 2019 18:58

#	Program:	/corina/corina34_cracker 3.40 0067  02.08.2006

@<TRIPOS>MOLECULE
ASD01120014
  52   55    0    0    0
SMALL
NO_CHARGES


@<TRIPOS>ATOM
   1 C1            -0.0900     1.3500     0.6471 C.ar    
   2 C2            -0.0520    -0.0391     0.4629 C.ar    
   3 C3            -1.1845    -0.7312     0.0945 C.ar    
   4 C4            -2.3853    -0.0371    -0.0972 C.ar    
   5 C5            -2.4160     1.3670     0.0909 C.ar    
   6 C6            -1.2521     2.0461     0.4703 C.ar    
   7 N7            -3.5162    -0.6645    -0.4566 N.ar    
   8 C8            -4.6263     0.0128    -0.6293 C.ar    
   9 N9            -4.7025     1.3239    -0.4651 N.ar    
  10 C10           -3.6441     2.0409    -0.1107 C.ar    
  11 N11           -3.7382     3.4079     0.0575 N.pl3   
  12 C12           -4.9822     4.0392    -0.0323 C.ar    
  13 C13           -6.1279     3.3761     0.3809 C.ar    
  14 C14           -7.3649     4.0094     0.2900 C.ar    
  15 C15           -7.4446     5.3059    -0.2157 C.ar    
  16 C16           -6.2991     5.9593    -0.6251 C.ar    
  17 C17           -5.0706     5.3340    -0.5304 C.ar    
  18 C18           -8.5947     3.3058     0.7297 C.2     
  19 O19            1.0410     2.0112     1.0112 O.3     
  20 O20            1.1146    -0.7099     0.6492 O.3     
  21 C21           -9.8209     3.8632     0.6675 C.2     
  22 S22          -10.9806     2.6891     1.2841 S.3     
  23 C23           -9.7190     1.5707     1.5644 C.2     
  24 N24           -8.5858     2.0719     1.2131 N.2     
  25 C25            0.9384     3.4261     1.1835 C.3     
  26 C26            2.3012     3.9906     1.5899 C.3     
  27 C27            1.0892    -2.1242     0.4462 C.3     
  28 C28            2.4834    -2.7009     0.7002 C.3     
  29 C29           -9.9069     0.1894     2.1371 C.3     
  30 O30           -9.8056     0.2464     3.5614 O.3     
  31 H31           -1.1464    -1.8013    -0.0457 H       
  32 H32           -1.2709     3.1162     0.6148 H       
  33 H33           -5.5179    -0.5235    -0.9189 H       
  34 H34           -2.9411     3.9304     0.2379 H       
  35 H35           -6.0612     2.3715     0.7718 H       
  36 H36           -8.4025     5.7993    -0.2878 H       
  37 H37           -6.3631     6.9638    -1.0166 H       
  38 H38           -4.1777     5.8496    -0.8516 H       
  39 H39          -10.0511     4.8541     0.3047 H       
  40 H40            0.6201     3.8840     0.2470 H       
  41 H41            0.2076     3.6453     1.9619 H       
  42 H42            2.2229     5.0698     1.7213 H       
  43 H43            2.6195     3.5327     2.5264 H       
  44 H44            3.0320     3.7714     0.8115 H       
  45 H45            0.3773    -2.5775     1.1360 H       
  46 H46            0.7885    -2.3387    -0.5793 H       
  47 H47            3.1953    -2.2476     0.0104 H       
  48 H48            2.7841    -2.4863     1.7257 H       
  49 H49            2.4641    -3.7797     0.5454 H       
  50 H50          -10.8902    -0.1891     1.8577 H       
  51 H51           -9.1369    -0.4746     1.7444 H       
  52 H52           -9.9167    -0.6091     3.9981 H       
@<TRIPOS>BOND
   1    1    2 ar
   2    1   19 1
   3    1    6 ar
   4    2    3 ar
   5    2   20 1
   6    3    4 ar
   7    3   31 1
   8    4    5 ar
   9    4    7 ar
  10    5    6 ar
  11    5   10 ar
  12    6   32 1
  13    7    8 ar
  14    8    9 ar
  15    8   33 1
  16    9   10 ar
  17   10   11 1
  18   11   12 1
  19   11   34 1
  20   12   13 ar
  21   12   17 ar
  22   13   14 ar
  23   13   35 1
  24   14   15 ar
  25   14   18 1
  26   15   16 ar
  27   15   36 1
  28   16   17 ar
  29   16   37 1
  30   17   38 1
  31   18   21 2
  32   18   24 1
  33   19   25 1
  34   20   27 1
  35   21   22 1
  36   21   39 1
  37   22   23 1
  38   23   24 2
  39   23   29 1
  40   25   26 1
  41   25   40 1
  42   25   41 1
  43   26   42 1
  44   26   43 1
  45   26   44 1
  46   27   28 1
  47   27   45 1
  48   27   46 1
  49   28   47 1
  50   28   48 1
  51   28   49 1
  52   29   30 1
  53   29   50 1
  54   29   51 1
  55   30   52 1

#	End of record

