#	Name: ASD01420013
#	Creating user name:	WinNT
#	Creation time:	15. 06. 2019 19:20

#	Modifying user name:	WinNT
#	Modification time:	15. 06. 2019 19:20

#	Program:	/corina/corina34_cracker 3.40 0067  02.08.2006

@<TRIPOS>MOLECULE
ASD01420013
  28   28    0    0    0
SMALL
NO_CHARGES


@<TRIPOS>ATOM
   1 C1            -0.0184     1.5028     0.0103 C.2     
   2 C2             0.0021    -0.0041     0.0020 C.3     
   3 C3             1.2402     2.2524     0.0023 C.ar    
   4 C4             1.2252     3.6591     0.0100 C.ar    
   5 C5             2.4210     4.3555     0.0023 C.ar    
   6 C6             3.6246     3.6647    -0.0130 C.ar    
   7 C7             3.6362     2.2724    -0.0210 C.ar    
   8 C8             2.4652     1.5719    -0.0072 C.ar    
   9 C9             4.9501     1.5345    -0.0386 C.3     
  10 C10            5.0542     0.6488     1.2047 C.3     
  11 C11            5.0288     0.6631    -1.2937 C.3     
  12 O12            4.7957     4.3494    -0.0205 O.3     
  13 O13            0.0460     4.3286     0.0245 O.3     
  14 O14           -1.0773     2.0951     0.0185 O.2     
  15 H15            0.0168    -0.3729     1.0276 H       
  16 H16           -0.8878    -0.3767    -0.5053 H       
  17 H17            0.8920    -0.3525    -0.5222 H       
  18 H18            2.4177     5.4355     0.0078 H       
  19 H19            2.4824     0.4920    -0.0083 H       
  20 H20            5.7700     2.2527    -0.0428 H       
  21 H21            4.2343    -0.0693     1.2089 H       
  22 H22            6.0046     0.1151     1.1920 H       
  23 H23            4.9981     1.2697     2.0988 H       
  24 H24            4.9546     1.2940    -2.1794 H       
  25 H25            5.9792     0.1294    -1.3064 H       
  26 H26            4.2089    -0.0551    -1.2894 H       
  27 H27            5.1437     4.5432     0.8606 H       
  28 H28           -0.2879     4.5181     0.9120 H       
@<TRIPOS>BOND
   1    1    2 1
   2    1    3 1
   3    1   14 2
   4    2   15 1
   5    2   16 1
   6    2   17 1
   7    3    4 ar
   8    3    8 ar
   9    4    5 ar
  10    4   13 1
  11    5    6 ar
  12    5   18 1
  13    6    7 ar
  14    6   12 1
  15    7    8 ar
  16    7    9 1
  17    8   19 1
  18    9   10 1
  19    9   11 1
  20    9   20 1
  21   10   21 1
  22   10   22 1
  23   10   23 1
  24   11   24 1
  25   11   25 1
  26   11   26 1
  27   12   27 1
  28   13   28 1

#	End of record

