#	Name: ASD09800041
#	Creating user name:	WinNT
#	Creation time:	15. 06. 2019 21:24

#	Modifying user name:	WinNT
#	Modification time:	15. 06. 2019 21:24

#	Program:	/corina/corina34_cracker 3.40 0067  02.08.2006

@<TRIPOS>MOLECULE
ASD09800041
  62   67    0    0    0
SMALL
NO_CHARGES


@<TRIPOS>ATOM
   1 C1            -3.2187     1.2295     2.8710 C.2     
   2 N2            -4.3032     0.5723     3.2397 N.2     
   3 C3            -5.0185    -0.1391     2.3587 C.2     
   4 C4            -4.6658    -0.2167     1.0627 C.2     
   5 C5            -2.8077     1.1873     1.5234 C.2     
   6 C6            -1.7529     1.7405     0.8056 C.2     
   7 N7            -3.5445     0.4470     0.6174 N.pl3   
   8 C8            -2.9460     0.5738    -0.5805 C.2     
   9 N9            -1.8903     1.3389    -0.4688 N.2     
  10 C10           -0.6837     2.6063     1.3430 C.ar    
  11 C11            0.1832     4.8263     1.8910 C.ar    
  12 C12            1.3671     4.2237     2.3688 C.ar    
  13 C13            1.5062     2.8522     2.3232 C.ar    
  14 C14            0.4940     2.0488     1.8162 C.ar    
  15 C15           -0.8525     4.0131     1.3728 C.ar    
  16 N16            2.3969     5.0148     2.8822 N.am    
  17 C17            3.6603     4.5459     2.9033 C.2     
  18 N18            4.6357     5.2634     3.4951 N.am    
  19 O19            3.9202     3.4755     2.3883 O.2     
  20 C20            5.9258     4.7330     3.6054 C.ar    
  21 C21            7.9688     4.4789     4.8410 C.ar    
  22 C22            6.6942     5.0018     4.7311 C.ar    
  23 C23            6.4367     3.9336     2.5931 C.ar    
  24 C24            7.7172     3.4093     2.7063 C.ar    
  25 C25            8.4830     3.6870     3.8331 C.ar    
  26 N26           -2.4945     1.9586     3.7994 N.pl3   
  27 C27           -3.4175    -0.0720    -1.8579 C.3     
  28 C28           -4.8334     0.2570    -2.3351 C.3     
  29 C29           -3.6239     0.8341    -3.0733 C.3     
  30 C30           -2.8976    -1.4884    -2.1122 C.3     
  31 C31            0.0157     6.2201     1.9189 C.ar    
  32 C32           -2.0270     4.6131     0.8976 C.ar    
  33 C33           -2.1575     5.9687     0.9402 C.ar    
  34 C34           -1.1385     6.7700     1.4496 C.ar    
  35 S35            8.3708     2.3929     1.4240 S.3     
  36 C36           10.0263     1.9761     2.0375 C.3     
  37 H37           -5.8999    -0.6636     2.6971 H       
  38 H38           -5.2603    -0.7981     0.3736 H       
  39 H39            2.4140     2.3966     2.6902 H       
  40 H40            0.6253     0.9771     1.7906 H       
  41 H41            2.2030     5.9017     3.2237 H       
  42 H42            4.4433     6.1476     3.8447 H       
  43 H43            8.5641     4.6902     5.7170 H       
  44 H44            6.2951     5.6204     5.5213 H       
  45 H45            5.8394     3.7193     1.7192 H       
  46 H46            9.4793     3.2799     3.9221 H       
  47 H47           -2.7292     1.9157     4.7396 H       
  48 H48           -1.7527     2.5123     3.5094 H       
  49 H49           -5.3944    -0.5354    -2.8306 H       
  50 H50           -5.4240     0.9407    -1.7252 H       
  51 H51           -3.4187     1.8973    -2.9491 H       
  52 H52           -3.3891     0.4213    -4.0545 H       
  53 H53           -3.1777    -2.1332    -1.2792 H       
  54 H54           -3.3329    -1.8752    -3.0335 H       
  55 H55           -1.8118    -1.4656    -2.2049 H       
  56 H56            0.7982     6.8530     2.3107 H       
  57 H57           -2.8247     4.0036     0.4993 H       
  58 H58           -3.0634     6.4283     0.5735 H       
  59 H59           -1.2651     7.8423     1.4721 H       
  60 H60           10.6014     2.8908     2.1813 H       
  61 H61            9.9395     1.4484     2.9873 H       
  62 H62           10.5326     1.3387     1.3126 H       
@<TRIPOS>BOND
   1    1    2 2
   2    1   26 1
   3    1    5 1
   4    2    3 1
   5    3    4 2
   6    3   37 1
   7    4    7 1
   8    4   38 1
   9    5    7 1
  10    5    6 2
  11    6    9 1
  12    6   10 1
  13    7    8 1
  14    8    9 2
  15    8   27 1
  16   10   15 ar
  17   10   14 ar
  18   11   12 ar
  19   11   15 ar
  20   11   31 ar
  21   12   13 ar
  22   12   16 1
  23   13   14 ar
  24   13   39 1
  25   14   40 1
  26   15   32 ar
  27   16   17 am
  28   16   41 1
  29   17   18 am
  30   17   19 2
  31   18   20 1
  32   18   42 1
  33   20   23 ar
  34   20   22 ar
  35   21   22 ar
  36   21   25 ar
  37   21   43 1
  38   22   44 1
  39   23   24 ar
  40   23   45 1
  41   24   25 ar
  42   24   35 1
  43   25   46 1
  44   26   47 1
  45   26   48 1
  46   27   28 1
  47   27   29 1
  48   27   30 1
  49   28   29 1
  50   28   49 1
  51   28   50 1
  52   29   51 1
  53   29   52 1
  54   30   53 1
  55   30   54 1
  56   30   55 1
  57   31   34 ar
  58   31   56 1
  59   32   33 ar
  60   32   57 1
  61   33   34 ar
  62   33   58 1
  63   34   59 1
  64   35   36 1
  65   36   60 1
  66   36   61 1
  67   36   62 1

#	End of record

