#	Name: ASD01813871
#	Creating user name:	WinNT
#	Creation time:	15. 06. 2019 19:31

#	Modifying user name:	WinNT
#	Modification time:	15. 06. 2019 19:31

#	Program:	/corina/corina34_cracker 3.40 0067  02.08.2006

@<TRIPOS>MOLECULE
ASD01813871
  58   61    0    0    0
SMALL
NO_CHARGES


@<TRIPOS>ATOM
   1 C1             0.3057     1.1908     1.2271 C.2     
   2 C2             0.1589    -0.1544     0.8628 C.2     
   3 C3             1.2676    -0.9365     0.7212 C.2     
   4 C4             2.5383    -0.3799     0.9430 C.2     
   5 N5             2.6523     0.9367     1.2982 N.am    
   6 C6             1.5371     1.7088     1.4365 C.2     
   7 C7             3.6793    -1.1816     0.7982 C.2     
   8 C8             4.9183    -0.6509     1.0117 C.2     
   9 C9             5.0318     0.7035     1.3764 C.2     
  10 C10            3.8656     1.4836     1.5144 C.2     
  11 O11            3.9546     2.6582     1.8297 O.2     
  12 C12            6.3498     1.2971     1.6117 C.2     
  13 O13            6.4518     2.5961     1.9611 O.3     
  14 O14            7.3524     0.6189     1.4922 O.2     
  15 C15            3.5374    -2.6301     0.4070 C.3     
  16 N16            3.6896    -2.7614    -1.0482 N.3     
  17 C17            3.7945    -4.1735    -1.4414 C.3     
  18 C18            3.8714    -4.2712    -2.9668 C.3     
  19 N19            5.0311    -3.5064    -3.4462 N.3     
  20 C20            4.9262    -2.0943    -3.0530 C.3     
  21 C21            4.8493    -1.9967    -1.5276 C.3     
  22 C22            5.1758    -3.6313    -4.8298 C.ar    
  23 C23            4.2803    -3.0002    -5.6819 C.ar    
  24 C24            4.4273    -3.1267    -7.0544 C.ar    
  25 C25            5.4685    -3.8833    -7.5733 C.ar    
  26 C26            6.3594    -4.5112    -6.7233 C.ar    
  27 C27            6.2199    -4.3831    -5.3552 C.ar    
  28 C28            4.0217    -5.7374    -3.3775 C.3     
  29 C29            2.5926    -3.6973    -3.5802 C.3     
  30 O30            3.5520    -2.5104    -7.8916 O.3     
  31 C31            3.7638    -2.6839    -9.2941 C.3     
  32 H32           -0.5673     1.8171     1.3368 H       
  33 H33           -0.8244    -0.5688     0.6958 H       
  34 H34            1.1694    -1.9750     0.4412 H       
  35 H35            1.6385     2.7467     1.7172 H       
  36 H36            5.8012    -1.2632     0.9025 H       
  37 H37            7.3427     2.9431     2.1058 H       
  38 H38            4.3065    -3.2185     0.9073 H       
  39 H39            2.5529    -2.9918     0.7035 H       
  40 H40            4.6936    -4.6071    -1.0035 H       
  41 H41            2.9185    -4.7161    -1.0859 H       
  42 H42            5.8022    -1.5518    -3.4085 H       
  43 H43            4.0271    -1.6608    -3.4910 H       
  44 H44            4.7423    -0.9522    -1.2350 H       
  45 H45            5.7604    -2.4055    -1.0907 H       
  46 H46            3.4704    -2.4121    -5.2764 H       
  47 H47            5.5826    -3.9820    -8.6427 H       
  48 H48            7.1686    -5.0997    -7.1298 H       
  49 H49            6.9176    -4.8744    -4.6932 H       
  50 H50            3.2163    -6.3232    -2.9345 H       
  51 H51            3.9740    -5.8172    -4.4636 H       
  52 H52            4.9817    -6.1163    -3.0272 H       
  53 H53            2.5513    -2.6238    -3.3959 H       
  54 H54            2.5903    -3.8819    -4.6544 H       
  55 H55            1.7252    -4.1774    -3.1271 H       
  56 H56            4.7473    -2.2987    -9.5634 H       
  57 H57            3.7087    -3.7440    -9.5414 H       
  58 H58            2.9971    -2.1413    -9.8472 H       
@<TRIPOS>BOND
   1    1    2 1
   2    1    6 2
   3    1   32 1
   4    2    3 2
   5    2   33 1
   6    3    4 1
   7    3   34 1
   8    4    5 1
   9    4    7 2
  10    5    6 1
  11    5   10 am
  12    6   35 1
  13    7    8 1
  14    7   15 1
  15    8    9 2
  16    8   36 1
  17    9   10 1
  18    9   12 1
  19   10   11 2
  20   12   13 1
  21   12   14 2
  22   13   37 1
  23   15   16 1
  24   15   38 1
  25   15   39 1
  26   16   17 1
  27   16   21 1
  28   17   18 1
  29   17   40 1
  30   17   41 1
  31   18   19 1
  32   18   28 1
  33   18   29 1
  34   19   20 1
  35   19   22 1
  36   20   21 1
  37   20   42 1
  38   20   43 1
  39   21   44 1
  40   21   45 1
  41   22   23 ar
  42   22   27 ar
  43   23   24 ar
  44   23   46 1
  45   24   25 ar
  46   24   30 1
  47   25   26 ar
  48   25   47 1
  49   26   27 ar
  50   26   48 1
  51   27   49 1
  52   28   50 1
  53   28   51 1
  54   28   52 1
  55   29   53 1
  56   29   54 1
  57   29   55 1
  58   30   31 1
  59   31   56 1
  60   31   57 1
  61   31   58 1

#	End of record

