#	Name: ASD02039295
#	Creating user name:	WinNT
#	Creation time:	15. 06. 2019 20:18

#	Modifying user name:	WinNT
#	Modification time:	15. 06. 2019 20:18

#	Program:	/corina/corina34_cracker 3.40 0067  02.08.2006

@<TRIPOS>MOLECULE
ASD02039295
  46   48    0    0    0
SMALL
NO_CHARGES


@<TRIPOS>ATOM
   1 C1             0.1356     1.1847    -0.3170 C.ar    
   2 C2             0.5172    -0.0933     0.0492 C.ar    
   3 C3            -0.3871    -1.1374    -0.0190 C.ar    
   4 C4            -1.6790    -0.9081    -0.4543 C.ar    
   5 C5            -2.0685     0.3800    -0.8244 C.ar    
   6 C6            -1.1533     1.4272    -0.7479 C.ar    
   7 C7            -3.4534     0.6338    -1.2926 C.ar    
   8 C8             1.1276     2.3165    -0.2396 C.3     
   9 N9             1.9438     2.3345    -1.4560 N.am    
  10 C10            1.4504     3.0089    -2.6593 C.3     
  11 C11            3.1487     1.7307    -1.4680 C.2     
  12 C12            3.6002     0.9639    -0.2938 C.2     
  13 C13            4.7330     0.2083    -0.2110 C.2     
  14 C14            2.4335     4.1080    -3.0673 C.3     
  15 N15            2.9677     0.8854     0.9049 N.2     
  16 C16            3.6603     0.1189     1.6968 C.2     
  17 N17            4.7633    -0.3189     1.0355 N.pl3   
  18 O18            3.8633     1.8187    -2.4482 O.2     
  19 C19            5.7992    -1.2036     1.5744 C.3     
  20 F20           -2.5621    -1.9284    -0.5217 F       
  21 C21            1.3204     1.9933    -3.7961 C.3     
  22 C22           -4.0312    -0.1584    -2.2879 C.ar    
  23 C23           -4.2177     1.6679    -0.7463 C.ar    
  24 N24           -5.4473     1.8594    -1.1925 N.ar    
  25 C25           -5.9526     1.0918    -2.1376 C.ar    
  26 N26           -5.2678     0.1022    -2.6757 N.ar    
  27 H27            1.5257    -0.2767     0.3895 H       
  28 H28           -0.0835    -2.1333     0.2679 H       
  29 H29           -1.4493     2.4261    -1.0326 H       
  30 H30            0.5934     3.2621    -0.1464 H       
  31 H31            1.7719     2.1761     0.6283 H       
  32 H32            0.4756     3.4513    -2.4540 H       
  33 H33            5.4652     0.0590    -0.9907 H       
  34 H34            3.4242     3.6756    -3.2077 H       
  35 H35            2.1011     4.5651    -3.9993 H       
  36 H36            2.4756     4.8664    -2.2855 H       
  37 H37            3.4016    -0.1269     2.7162 H       
  38 H38            5.5311    -2.2410     1.3745 H       
  39 H39            6.7537    -0.9771     1.0992 H       
  40 H40            5.8837    -1.0510     2.6503 H       
  41 H41            0.5860     1.2352    -3.5238 H       
  42 H42            0.9969     2.5031    -4.7036 H       
  43 H43            2.2856     1.5179    -3.9708 H       
  44 H44           -3.4761    -0.9706    -2.7336 H       
  45 H45           -3.8106     2.3005     0.0286 H       
  46 H46           -6.9608     1.2763    -2.4782 H       
@<TRIPOS>BOND
   1    1    2 ar
   2    1    8 1
   3    1    6 ar
   4    2    3 ar
   5    2   27 1
   6    3    4 ar
   7    3   28 1
   8    4    5 ar
   9    4   20 1
  10    5    6 ar
  11    5    7 1
  12    6   29 1
  13    7   22 ar
  14    7   23 ar
  15    8    9 1
  16    8   30 1
  17    8   31 1
  18    9   10 1
  19    9   11 am
  20   10   21 1
  21   10   14 1
  22   10   32 1
  23   11   12 1
  24   11   18 2
  25   12   13 2
  26   12   15 1
  27   13   17 1
  28   13   33 1
  29   14   34 1
  30   14   35 1
  31   14   36 1
  32   15   16 2
  33   16   17 1
  34   16   37 1
  35   17   19 1
  36   19   38 1
  37   19   39 1
  38   19   40 1
  39   21   41 1
  40   21   42 1
  41   21   43 1
  42   22   26 ar
  43   22   44 1
  44   23   24 ar
  45   23   45 1
  46   24   25 ar
  47   25   26 ar
  48   25   46 1

#	End of record

