#	Name: ASD03730258
#	Creating user name:	WinNT
#	Creation time:	15. 06. 2019 20:44

#	Modifying user name:	WinNT
#	Modification time:	15. 06. 2019 20:44

#	Program:	/corina/corina34_cracker 3.40 0067  02.08.2006

@<TRIPOS>MOLECULE
ASD03730258
  61   66    0    0    0
SMALL
NO_CHARGES


@<TRIPOS>ATOM
   1 O1            -0.2826     1.2758     0.6596 O.3     
   2 C2            -0.2401    -0.1630     0.6946 C.3     
   3 O3             0.9268    -0.4894    -0.0831 O.3     
   4 C4             1.7567     0.5888     0.0328 C.ar    
   5 C5             1.0120     1.6746     0.4879 C.ar    
   6 C6             3.1098     0.7332    -0.2151 C.ar    
   7 C7             3.7359     1.9598    -0.0160 C.ar    
   8 C8             2.9798     3.0400     0.4290 C.ar    
   9 C9             1.6319     2.8971     0.6837 C.ar    
  10 O10            5.0444     2.3072    -0.1804 O.3     
  11 C11            3.9184     4.2134     0.5173 C.3     
  12 C12            5.1471     3.7412    -0.2721 C.3     
  13 N13            3.3392     6.3885     0.9113 N.am    
  14 C14            3.3241     5.4622    -0.0677 C.2     
  15 C15            4.2640     4.5643     1.9338 C.ar    
  16 C16            4.8344     3.8596     2.9849 C.ar    
  17 C17            5.0293     4.4864     4.2156 C.ar    
  18 C18            4.6525     5.8049     4.3788 C.ar    
  19 C19            4.0851     6.5049     3.3335 C.ar    
  20 C20            3.8854     5.8920     2.0977 C.ar    
  21 O21            2.9116     5.6086    -1.1989 O.2     
  22 C22            2.8417     7.7569     0.7500 C.3     
  23 C23            1.3575     7.8068     1.1182 C.3     
  24 C24            0.8380     9.2360     0.9498 C.3     
  25 C25           -0.6462     9.2858     1.3181 C.3     
  26 C26           -1.1658    10.7150     1.1496 C.3     
  27 C27            5.2352     2.4434     2.8000 C.ar    
  28 C28            4.4394     1.4156     3.3150 C.ar    
  29 C29            4.8204     0.0955     3.1377 C.ar    
  30 C30            5.9838    -0.2038     2.4540 C.ar    
  31 C31            6.7744     0.8114     1.9431 C.ar    
  32 C32            6.4026     2.1317     2.1077 C.ar    
  33 O33            3.2964     1.7105     3.9877 O.3     
  34 C34            2.5340     0.6091     4.4855 C.3     
  35 Cl35           8.2341     0.4238     1.0872 Cl      
  36 H36           -0.1292    -0.5181     1.7192 H       
  37 H37           -1.1354    -0.5839     0.2371 H       
  38 H38            3.6842    -0.1117    -0.5652 H       
  39 H39            1.0581     3.7414     1.0363 H       
  40 H40            6.0664     4.0941     0.1951 H       
  41 H41            5.0891     4.0678    -1.3104 H       
  42 H42            5.4726     3.9431     5.0370 H       
  43 H43            4.8024     6.2914     5.3313 H       
  44 H44            3.7940     7.5354     3.4740 H       
  45 H45            3.4009     8.4263     1.4037 H       
  46 H46            2.9697     8.0703    -0.2861 H       
  47 H47            0.7983     7.1375     0.4645 H       
  48 H48            1.2295     7.4934     2.1544 H       
  49 H49            1.3972     9.9053     1.6035 H       
  50 H50            0.9659     9.5493    -0.0863 H       
  51 H51           -1.2055     8.6165     0.6643 H       
  52 H52           -0.7742     8.9725     2.3542 H       
  53 H53           -1.0378    11.0284     0.1135 H       
  54 H54           -2.2231    10.7505     1.4119 H       
  55 H55           -0.6065    11.3843     1.8033 H       
  56 H56            4.2078    -0.7006     3.5343 H       
  57 H57            6.2776    -1.2342     2.3181 H       
  58 H58            7.0189     2.9213     1.7038 H       
  59 H59            2.2290    -0.0268     3.6545 H       
  60 H60            3.1424     0.0310     5.1811 H       
  61 H61            1.6492     0.9830     5.0007 H       
@<TRIPOS>BOND
   1    1    2 1
   2    1    5 1
   3    2    3 1
   4    2   36 1
   5    2   37 1
   6    3    4 1
   7    4    5 ar
   8    4    6 ar
   9    5    9 ar
  10    6    7 ar
  11    6   38 1
  12    7    8 ar
  13    7   10 1
  14    8    9 ar
  15    8   11 1
  16    9   39 1
  17   10   12 1
  18   11   12 1
  19   11   14 1
  20   11   15 1
  21   12   40 1
  22   12   41 1
  23   13   14 am
  24   13   20 1
  25   13   22 1
  26   14   21 2
  27   15   16 ar
  28   15   20 ar
  29   16   17 ar
  30   16   27 1
  31   17   18 ar
  32   17   42 1
  33   18   19 ar
  34   18   43 1
  35   19   20 ar
  36   19   44 1
  37   22   23 1
  38   22   45 1
  39   22   46 1
  40   23   24 1
  41   23   47 1
  42   23   48 1
  43   24   25 1
  44   24   49 1
  45   24   50 1
  46   25   26 1
  47   25   51 1
  48   25   52 1
  49   26   53 1
  50   26   54 1
  51   26   55 1
  52   27   28 ar
  53   27   32 ar
  54   28   29 ar
  55   28   33 1
  56   29   30 ar
  57   29   56 1
  58   30   31 ar
  59   30   57 1
  60   31   32 ar
  61   31   35 1
  62   32   58 1
  63   33   34 1
  64   34   59 1
  65   34   60 1
  66   34   61 1

#	End of record

