#	Name: ASD02198886
#	Creating user name:	WinNT
#	Creation time:	15. 06. 2019 20:20

#	Modifying user name:	WinNT
#	Modification time:	15. 06. 2019 20:20

#	Program:	/corina/corina34_cracker 3.40 0067  02.08.2006

@<TRIPOS>MOLECULE
ASD02198886
  56   60    0    0    0
SMALL
NO_CHARGES


@<TRIPOS>ATOM
   1 F1             3.3447     0.2489     3.1452 F       
   2 C2             0.4005     2.7191     0.4032 C.2     
   3 C3             0.5639     1.4380     0.8191 C.2     
   4 N4             1.7989     0.9019     0.9439 N.pl3   
   5 N5             2.8758     1.5471     0.6851 N.2     
   6 C6             2.8602     2.7966     0.2729 C.2     
   7 C7             1.5626     3.4706     0.1057 C.2     
   8 C8             1.9068    -0.4237     1.3778 C.ar    
   9 C9             2.6888    -0.7318     2.4869 C.ar    
  10 C10            2.7944    -2.0419     2.9142 C.ar    
  11 C11            2.1203    -3.0491     2.2368 C.ar    
  12 C12            1.3401    -2.7409     1.1294 C.ar    
  13 C13            1.2287    -1.4326     0.7051 C.ar    
  14 C14            4.1211     3.5095    -0.0160 C.2     
  15 N15            4.4550     4.1257    -1.1892 N.pl3   
  16 N16            5.7342     4.6741    -1.0340 N.2     
  17 C17            6.1629     4.4074     0.1739 C.2     
  18 C18            5.1796     3.6836     0.8484 C.2     
  19 C19            3.6604     4.1960    -2.3405 C.ar    
  20 C20            2.9739     3.0721    -2.7813 C.ar    
  21 C21            2.1904     3.1414    -3.9172 C.ar    
  22 C22            2.0873     4.3282    -4.6171 C.ar    
  23 C23            2.7712     5.4547    -4.1812 C.ar    
  24 C24            3.5535     5.3906    -3.0391 C.ar    
  25 O25            1.4914     4.6298    -0.2747 O.2     
  26 N26            2.2273    -4.3778     2.6701 N.pl3   
  27 N27            2.3057    -5.5100     1.8491 N.2     
  28 C28            2.3960    -6.5685     2.6132 C.2     
  29 C29            2.3788    -6.1530     3.9483 C.2     
  30 C30            2.2796    -4.7972     3.9625 C.2     
  31 O31            2.2330    -4.0071     5.0655 O.3     
  32 C32            2.3789    -4.6522     6.3322 C.3     
  33 F33            1.3810    -5.6215     6.4796 F       
  34 F34            3.6359    -5.2624     6.4027 F       
  35 O35            2.6692     6.6213    -4.8709 O.3     
  36 C36            1.8409     6.6163    -6.0353 C.3     
  37 F37            0.5323     6.2769    -5.6752 F       
  38 F38            1.8490     7.8877    -6.6189 F       
  39 F39            2.3302     5.6793    -6.9517 F       
  40 C40            7.4957     4.8198     0.7437 C.3     
  41 H41           -0.5842     3.1500     0.2983 H       
  42 H42           -0.3035     0.8389     1.0538 H       
  43 H43            3.4013    -2.2822     3.7746 H       
  44 H44            0.8168    -3.5253     0.6028 H       
  45 H45            0.6219    -1.1942    -0.1559 H       
  46 H46            5.2403     3.3187     1.8631 H       
  47 H47            3.0528     2.1432    -2.2360 H       
  48 H48            1.6579     2.2661    -4.2588 H       
  49 H49            1.4742     4.3794    -5.5047 H       
  50 H50            4.0863     6.2661    -2.6984 H       
  51 H51            2.4711    -7.5900     2.2707 H       
  52 H52            2.4380    -6.7952     4.8147 H       
  53 H53            2.2884    -3.9135     7.1286 H       
  54 H54            7.4002     5.7944     1.2225 H       
  55 H55            7.8198     4.0837     1.4793 H       
  56 H56            8.2310     4.8797    -0.0587 H       
@<TRIPOS>BOND
   1    1    9 1
   2    2    3 2
   3    2    7 1
   4    2   41 1
   5    3    4 1
   6    3   42 1
   7    4    5 1
   8    4    8 1
   9    5    6 2
  10    6    7 1
  11    6   14 1
  12    7   25 2
  13    8    9 ar
  14    8   13 ar
  15    9   10 ar
  16   10   11 ar
  17   10   43 1
  18   11   12 ar
  19   11   26 1
  20   12   13 ar
  21   12   44 1
  22   13   45 1
  23   14   15 1
  24   14   18 2
  25   15   16 1
  26   15   19 1
  27   16   17 2
  28   17   18 1
  29   17   40 1
  30   18   46 1
  31   19   20 ar
  32   19   24 ar
  33   20   21 ar
  34   20   47 1
  35   21   22 ar
  36   21   48 1
  37   22   23 ar
  38   22   49 1
  39   23   24 ar
  40   23   35 1
  41   24   50 1
  42   26   27 1
  43   26   30 1
  44   27   28 2
  45   28   29 1
  46   28   51 1
  47   29   30 2
  48   29   52 1
  49   30   31 1
  50   31   32 1
  51   32   33 1
  52   32   34 1
  53   32   53 1
  54   35   36 1
  55   36   37 1
  56   36   38 1
  57   36   39 1
  58   40   54 1
  59   40   55 1
  60   40   56 1

#	End of record

