#	Name: ASD02500686
#	Creating user name:	WinNT
#	Creation time:	15. 06. 2019 20:23

#	Modifying user name:	WinNT
#	Modification time:	15. 06. 2019 20:23

#	Program:	/corina/corina34_cracker 3.40 0067  02.08.2006

@<TRIPOS>MOLECULE
ASD02500686
  71   75    0    0    0
SMALL
NO_CHARGES


@<TRIPOS>ATOM
   1 N1            -4.9488     5.1175    -1.6729 N.ar    
   2 C2            -5.8355     5.5298    -2.5459 C.ar    
   3 C3            -7.2014     5.3349    -2.3516 C.ar    
   4 C4            -7.6461     4.6990    -1.2277 C.ar    
   5 C5            -6.6910     4.2573    -0.2926 C.ar    
   6 C6            -7.0727     3.5967     0.8859 C.ar    
   7 C7            -6.1185     3.1852     1.7659 C.ar    
   8 C8            -4.7673     3.4114     1.5126 C.ar    
   9 C9            -4.3620     4.0486     0.3803 C.ar    
  10 C10           -5.3172     4.4885    -0.5523 C.ar    
  11 S11           -2.6466     4.3222     0.0853 S.o2    
  12 O12           -2.5109     5.6970    -0.2475 O.2     
  13 O13           -1.9515     3.7113     1.1637 O.2     
  14 N14           -2.2412     3.4695    -1.2752 N.am    
  15 C15           -2.4042     2.0888    -1.3048 C.ar    
  16 C16           -3.0065     1.4860    -2.4026 C.ar    
  17 C17           -3.1683     0.1124    -2.4323 C.ar    
  18 C18           -2.7216    -0.6633    -1.3506 C.ar    
  19 C19           -2.1174    -0.0417    -0.2531 C.ar    
  20 C20           -1.9578     1.3140    -0.2362 C.ar    
  21 O21           -3.7559    -0.4820    -3.5009 O.3     
  22 C22           -4.1852     0.3718    -4.5634 C.3     
  23 C23           -2.8891    -2.1259    -1.3713 C.2     
  24 O24           -3.9833    -2.6097    -1.5905 O.2     
  25 N25           -1.8299    -2.9287    -1.1475 N.am    
  26 C26           -1.9576    -4.3909    -1.2423 C.3     
  27 C27           -0.8501    -4.9177    -2.1611 C.3     
  28 N28            0.4517    -4.4378    -1.6785 N.3     
  29 C29            0.5350    -2.9724    -1.7381 C.3     
  30 C30           -0.5143    -2.3657    -0.8079 C.3     
  31 C31            1.5523    -5.0586    -2.4277 C.3     
  32 C32            2.8843    -4.4694    -1.9590 C.3     
  33 C33            3.1113    -4.8274    -0.4889 C.3     
  34 C34            4.4432    -4.2382    -0.0203 C.3     
  35 C35            5.5810    -4.8127    -0.8667 C.3     
  36 C36            5.3540    -4.4548    -2.3368 C.3     
  37 C37            4.0220    -5.0440    -2.8054 C.3     
  38 H38           -5.4983     6.0342    -3.4394 H       
  39 H39           -7.9078     5.6866    -3.0890 H       
  40 H40           -8.7012     4.5398    -1.0609 H       
  41 H41           -8.1171     3.4163     1.0936 H       
  42 H42           -6.4130     2.6771     2.6722 H       
  43 H43           -4.0296     3.0759     2.2265 H       
  44 H44           -1.8900     3.9332    -2.0515 H       
  45 H45           -3.3480     2.0890    -3.2310 H       
  46 H46           -1.7731    -0.6355     0.5807 H       
  47 H47           -1.4870     1.7889     0.6118 H       
  48 H48           -4.9187     1.0832    -4.1839 H       
  49 H49           -3.3278     0.9127    -4.9639 H       
  50 H50           -4.6366    -0.2293    -5.3527 H       
  51 H51           -1.8523    -4.8327    -0.2514 H       
  52 H52           -2.9317    -4.6472    -1.6589 H       
  53 H53           -0.8608    -6.0076    -2.1558 H       
  54 H54           -1.0172    -4.5569    -3.1760 H       
  55 H55            1.5288    -2.6516    -1.4259 H       
  56 H56            0.3486    -2.6387    -2.7589 H       
  57 H57           -0.5347    -1.2836    -0.9374 H       
  58 H58           -0.2676    -2.6090     0.2255 H       
  59 H59            1.5494    -6.1345    -2.2529 H       
  60 H60            1.4230    -4.8630    -3.4921 H       
  61 H61            2.8610    -3.3853    -2.0696 H       
  62 H62            2.3007    -4.4180     0.1140 H       
  63 H63            3.1346    -5.9115    -0.3784 H       
  64 H64            4.4199    -3.1540    -0.1309 H       
  65 H65            4.6049    -4.4932     1.0270 H       
  66 H66            6.5299    -4.3930    -0.5328 H       
  67 H67            5.6043    -5.8969    -0.7561 H       
  68 H68            5.3307    -3.3706    -2.4473 H       
  69 H69            6.1646    -4.8641    -2.9397 H       
  70 H70            4.0454    -6.1281    -2.6948 H       
  71 H71            3.8603    -4.7889    -3.8527 H       
@<TRIPOS>BOND
   1    1    2 ar
   2    1   10 ar
   3    2    3 ar
   4    2   38 1
   5    3    4 ar
   6    3   39 1
   7    4    5 ar
   8    4   40 1
   9    5    6 ar
  10    5   10 ar
  11    6    7 ar
  12    6   41 1
  13    7    8 ar
  14    7   42 1
  15    8    9 ar
  16    8   43 1
  17    9   10 ar
  18    9   11 1
  19   11   12 2
  20   11   13 2
  21   11   14 am
  22   14   15 1
  23   14   44 1
  24   15   16 ar
  25   15   20 ar
  26   16   17 ar
  27   16   45 1
  28   17   18 ar
  29   17   21 1
  30   18   19 ar
  31   18   23 1
  32   19   20 ar
  33   19   46 1
  34   20   47 1
  35   21   22 1
  36   22   48 1
  37   22   49 1
  38   22   50 1
  39   23   24 2
  40   23   25 am
  41   25   26 1
  42   25   30 1
  43   26   27 1
  44   26   51 1
  45   26   52 1
  46   27   28 1
  47   27   53 1
  48   27   54 1
  49   28   29 1
  50   28   31 1
  51   29   30 1
  52   29   55 1
  53   29   56 1
  54   30   57 1
  55   30   58 1
  56   31   32 1
  57   31   59 1
  58   31   60 1
  59   32   33 1
  60   32   37 1
  61   32   61 1
  62   33   34 1
  63   33   62 1
  64   33   63 1
  65   34   35 1
  66   34   64 1
  67   34   65 1
  68   35   36 1
  69   35   66 1
  70   35   67 1
  71   36   37 1
  72   36   68 1
  73   36   69 1
  74   37   70 1
  75   37   71 1

#	End of record

