#	Name: ASD01811194
#	Creating user name:	WinNT
#	Creation time:	15. 06. 2019 19:26

#	Modifying user name:	WinNT
#	Modification time:	15. 06. 2019 19:26

#	Program:	/corina/corina34_cracker 3.40 0067  02.08.2006

@<TRIPOS>MOLECULE
ASD01811194
  59   62    0    0    0
SMALL
NO_CHARGES


@<TRIPOS>ATOM
   1 C1             0.1588     1.5105    -0.2426 C.2     
   2 C2             0.1596     0.0345    -0.1800 C.ar    
   3 C3             1.3382    -0.6762    -0.4233 C.ar    
   4 C4             1.3404    -2.0555    -0.3651 C.ar    
   5 C5             0.1800    -2.7422    -0.0667 C.ar    
   6 C6            -1.0050    -2.0445     0.1781 C.ar    
   7 C7            -1.0133    -0.6522     0.1273 C.ar    
   8 O8             1.2020     2.1123    -0.4006 O.2     
   9 O9            -0.9997     2.1888    -0.1301 O.3     
  10 C10            0.1921    -4.2479    -0.0055 C.3     
  11 C11           -0.1925    -4.8170    -1.3727 C.3     
  12 C12            2.6091     0.0646    -0.7502 C.3     
  13 C13            3.7445     0.0056     0.2737 C.3     
  14 C14            3.8584    -0.7696    -1.0405 C.3     
  15 C15           -2.2465    -2.7817     0.4970 C.2     
  16 O16           -2.6665    -3.6253    -0.2706 O.2     
  17 N17           -2.9123    -2.5182     1.6388 N.am    
  18 C18           -4.0932    -3.3068     2.0158 C.3     
  19 C19           -3.8886    -3.8549     3.4316 C.3     
  20 C20           -3.5764    -2.6969     4.3824 C.3     
  21 C21           -2.2843    -2.0061     3.9405 C.3     
  22 C22           -2.4673    -1.4407     2.5332 C.3     
  23 F23           -4.6294    -1.7762     4.3570 F       
  24 C24           -3.4081    -3.2283     5.7825 C.ar    
  25 C25           -3.4298    -2.3569     6.8570 C.ar    
  26 C26           -3.2763    -2.8365     8.1413 C.ar    
  27 C27           -3.0992    -4.2049     8.3555 C.ar    
  28 C28           -3.0787    -5.0787     7.2665 C.ar    
  29 C29           -3.2382    -4.5860     5.9879 C.ar    
  30 C30           -2.9388    -4.7098     9.6859 C.1     
  31 N31           -2.8115    -5.1103    10.7413 N.1     
  32 C32           -0.9251     3.6371    -0.2007 C.3     
  33 H33            2.2537    -2.5999    -0.5543 H       
  34 H34           -1.9257    -0.1078     0.3209 H       
  35 H35            1.1906    -4.5925     0.2636 H       
  36 H36           -0.5235    -4.5869     0.7435 H       
  37 H37           -0.1837    -5.9061    -1.3284 H       
  38 H38           -1.1909    -4.4724    -1.6418 H       
  39 H39            0.5231    -4.4780    -2.1217 H       
  40 H40            2.4822     0.9924    -1.3080 H       
  41 H41            4.3649     0.8944     0.3891 H       
  42 H42            3.5722    -0.5691     1.1837 H       
  43 H43            3.7610    -1.8543    -0.9950 H       
  44 H44            4.5536    -0.3908    -1.7896 H       
  45 H45           -4.9788    -2.6718     1.9942 H       
  46 H46           -4.2176    -4.1348     1.3179 H       
  47 H47           -4.7962    -4.3610     3.7605 H       
  48 H48           -3.0576    -4.5602     3.4322 H       
  49 H49           -2.0500    -1.1963     4.6315 H       
  50 H50           -1.4684    -2.7288     3.9362 H       
  51 H51           -1.5194    -1.0379     2.1765 H       
  52 H52           -3.2177    -0.6504     2.5546 H       
  53 H53           -3.5669    -1.2988     6.6899 H       
  54 H54           -3.2928    -2.1552     8.9791 H       
  55 H55           -2.9421    -6.1382     7.4252 H       
  56 H56           -3.2267    -5.2612     5.1451 H       
  57 H57           -0.2894     4.0078     0.6033 H       
  58 H58           -0.5048     3.9329    -1.1620 H       
  59 H59           -1.9252     4.0579    -0.0966 H       
@<TRIPOS>BOND
   1    1    2 1
   2    1    8 2
   3    1    9 1
   4    2    3 ar
   5    2    7 ar
   6    3    4 ar
   7    3   12 1
   8    4    5 ar
   9    4   33 1
  10    5    6 ar
  11    5   10 1
  12    6    7 ar
  13    6   15 1
  14    7   34 1
  15    9   32 1
  16   10   11 1
  17   10   35 1
  18   10   36 1
  19   11   37 1
  20   11   38 1
  21   11   39 1
  22   12   13 1
  23   12   14 1
  24   12   40 1
  25   13   14 1
  26   13   41 1
  27   13   42 1
  28   14   43 1
  29   14   44 1
  30   15   16 2
  31   15   17 am
  32   17   18 1
  33   17   22 1
  34   18   19 1
  35   18   45 1
  36   18   46 1
  37   19   20 1
  38   19   47 1
  39   19   48 1
  40   20   21 1
  41   20   23 1
  42   20   24 1
  43   21   22 1
  44   21   49 1
  45   21   50 1
  46   22   51 1
  47   22   52 1
  48   24   25 ar
  49   24   29 ar
  50   25   26 ar
  51   25   53 1
  52   26   27 ar
  53   26   54 1
  54   27   28 ar
  55   27   30 1
  56   28   29 ar
  57   28   55 1
  58   29   56 1
  59   30   31 3
  60   32   57 1
  61   32   58 1
  62   32   59 1

#	End of record

