#	Name: ASD01720112
#	Creating user name:	WinNT
#	Creation time:	15. 06. 2019 19:23

#	Modifying user name:	WinNT
#	Modification time:	15. 06. 2019 19:23

#	Program:	/corina/corina34_cracker 3.40 0067  02.08.2006

@<TRIPOS>MOLECULE
ASD01720112
  66   69    0    0    0
SMALL
NO_CHARGES


@<TRIPOS>ATOM
   1 C1             0.1171     1.3526    -0.4452 C.ar    
   2 C2             0.1524    -0.0157    -0.4425 C.ar    
   3 C3             1.3063    -0.6724    -0.0186 C.ar    
   4 N4             2.3712     0.0076     0.3829 N.ar    
   5 C5             2.3831     1.3293     0.3975 C.ar    
   6 C6             1.2543     2.0534    -0.0171 C.ar    
   7 N7             1.3409    -2.0563    -0.0163 N.3     
   8 O8             3.4900     1.9883     0.8149 O.3     
   9 C9             4.6037     1.1917     1.2238 C.3     
  10 C10            5.7517     2.1050     1.6585 C.3     
  11 C11            6.9441     1.2521     2.0962 C.3     
  12 C12            7.4809     0.4711     0.8951 C.3     
  13 C13            8.0454     2.1599     2.6477 C.3     
  14 C14            1.2636     3.5255    -0.0023 C.2     
  15 O15            1.7369     4.1212     0.9466 O.2     
  16 C16            2.6538    -2.5553     0.4679 C.3     
  17 C17            2.7478    -3.9962    -0.0784 C.3     
  18 C18            1.8130    -4.0215    -1.3052 C.3     
  19 C19            1.2328    -2.5938    -1.3971 C.3     
  20 C20            3.3224    -4.1995    -1.4817 C.3     
  21 C21            3.8228    -5.5765    -1.8346 C.2     
  22 O22            3.7611    -6.4683    -1.0218 O.2     
  23 O23            4.3371    -5.8122    -3.0518 O.3     
  24 N24            0.7476     4.2131    -1.0404 N.am    
  25 C25            0.6481     5.6733    -0.9748 C.3     
  26 C26            1.3591     7.8165    -2.0439 C.3     
  27 C27            1.4631     6.2916    -2.1124 C.3     
  28 C28           -0.8174     6.0912    -1.1116 C.3     
  29 C29           -0.9213     7.6161    -1.0431 C.3     
  30 C30           -0.1063     8.2345    -2.1807 C.3     
  31 C31            0.2863     3.5004    -2.2343 C.3     
  32 H32           -0.7655     1.8811    -0.7739 H       
  33 H33           -0.7080    -0.5825    -0.7663 H       
  34 H34            4.3088     0.5562     2.0588 H       
  35 H35            4.9303     0.5690     0.3909 H       
  36 H36            6.0466     2.7405     0.8235 H       
  37 H37            5.4251     2.7277     2.4914 H       
  38 H38            6.6267     0.5542     2.8710 H       
  39 H39            7.7983     1.1691     0.1203 H       
  40 H40            8.3304    -0.1365     1.2069 H       
  41 H41            6.6963    -0.1756     0.5022 H       
  42 H42            7.6630     2.7163     3.5034 H       
  43 H43            8.8949     1.5523     2.9595 H       
  44 H44            8.3628     2.8579     1.8729 H       
  45 H45            3.4633    -1.9440     0.0691 H       
  46 H46            2.6805    -2.5593     1.5575 H       
  47 H47            2.7670    -4.8106     0.6458 H       
  48 H48            1.1363    -4.8548    -1.4943 H       
  49 H49            0.1897    -2.6269    -1.7116 H       
  50 H50            1.8200    -1.9886    -2.0877 H       
  51 H51            3.8778    -3.3714    -1.9220 H       
  52 H52            4.6451    -6.7110    -3.2318 H       
  53 H53            1.0373     6.0214    -0.0180 H       
  54 H54            1.7484     8.1646    -1.0872 H       
  55 H55            1.9398     8.2571    -2.8544 H       
  56 H56            2.5071     5.9939    -2.0149 H       
  57 H57            1.0738     5.9435    -3.0692 H       
  58 H58           -1.2067     5.7431    -2.0683 H       
  59 H59           -1.3980     5.6507    -0.3011 H       
  60 H60           -1.9653     7.9139    -1.1406 H       
  61 H61           -0.5320     7.9642    -0.0863 H       
  62 H62           -0.1804     9.3209    -2.1319 H       
  63 H63           -0.4956     7.8864    -3.1375 H       
  64 H64           -0.7477     3.1856    -2.0927 H       
  65 H65            0.3499     4.1609    -3.0990 H       
  66 H66            0.9134     2.6242    -2.3994 H       
@<TRIPOS>BOND
   1    1    2 ar
   2    1    6 ar
   3    1   32 1
   4    2    3 ar
   5    2   33 1
   6    3    4 ar
   7    3    7 1
   8    4    5 ar
   9    5    6 ar
  10    5    8 1
  11    6   14 1
  12    7   16 1
  13    7   19 1
  14    8    9 1
  15    9   10 1
  16    9   34 1
  17    9   35 1
  18   10   11 1
  19   10   36 1
  20   10   37 1
  21   11   12 1
  22   11   13 1
  23   11   38 1
  24   12   39 1
  25   12   40 1
  26   12   41 1
  27   13   42 1
  28   13   43 1
  29   13   44 1
  30   14   15 2
  31   14   24 am
  32   16   17 1
  33   16   45 1
  34   16   46 1
  35   17   18 1
  36   17   20 1
  37   17   47 1
  38   18   19 1
  39   18   20 1
  40   18   48 1
  41   19   49 1
  42   19   50 1
  43   20   21 1
  44   20   51 1
  45   21   22 2
  46   21   23 1
  47   23   52 1
  48   24   25 1
  49   24   31 1
  50   25   28 1
  51   25   27 1
  52   25   53 1
  53   26   27 1
  54   26   30 1
  55   26   54 1
  56   26   55 1
  57   27   56 1
  58   27   57 1
  59   28   29 1
  60   28   58 1
  61   28   59 1
  62   29   30 1
  63   29   60 1
  64   29   61 1
  65   30   62 1
  66   30   63 1
  67   31   64 1
  68   31   65 1
  69   31   66 1

#	End of record

