#	Name: ASD03331351
#	Creating user name:	WinNT
#	Creation time:	15. 06. 2019 20:39

#	Modifying user name:	WinNT
#	Modification time:	15. 06. 2019 20:39

#	Program:	/corina/corina34_cracker 3.40 0067  02.08.2006

@<TRIPOS>MOLECULE
ASD03331351
  56   58    0    0    0
SMALL
NO_CHARGES


@<TRIPOS>ATOM
   1 C1             0.2029     0.7798    -0.1144 C.2     
   2 C2            -1.0524     1.6006     0.0328 C.3     
   3 C3            -1.0038     2.3746     1.3517 C.3     
   4 C4             0.2143     3.3004     1.3553 C.3     
   5 O5             0.1306    -0.4223    -0.2121 O.2     
   6 O6             1.4008     1.3846    -0.1425 O.3     
   7 C7            -2.2782     3.2080     1.5012 C.3     
   8 C8            -0.8990     1.3894     2.5176 C.3     
   9 C9            -2.7654     0.3242    -1.1391 C.2     
  10 O10           -2.2908     0.7078    -2.1898 O.2     
  11 N11           -2.2187     0.7142     0.0295 N.am    
  12 C12           -6.4580    -2.4376    -2.7592 C.3     
  13 C13           -5.5062    -1.7407    -1.8199 C.2     
  14 C14           -4.4829    -0.9574    -2.2383 C.2     
  15 C15           -4.1807    -0.7006    -3.6941 C.3     
  16 C16           -4.9304    -1.7532    -4.5229 C.3     
  17 N17           -6.3329    -1.8161    -4.0886 N.3     
  18 N18           -4.4865    -1.0093    -0.0099 N.2     
  19 N19           -3.8384    -0.4914    -1.1422 N.am    
  20 C20           -5.4896    -1.7611    -0.4163 C.2     
  21 C21           -7.1594    -2.5196    -5.0785 C.3     
  22 C22           -7.2027    -1.7090    -6.3754 C.3     
  23 C23           -6.4359    -2.4986     0.4564 C.ar    
  24 C24           -7.0207    -1.8612     1.5517 C.ar    
  25 C25           -7.9021    -2.5531     2.3611 C.ar    
  26 C26           -8.2048    -3.8743     2.0873 C.ar    
  27 C27           -7.6270    -4.5120     1.0018 C.ar    
  28 C28           -6.7485    -3.8280     0.1822 C.ar    
  29 F29           -7.9267    -5.8031     0.7403 F       
  30 F30           -6.7255    -0.5706     1.8206 F       
  31 H31           -1.1270     2.3025    -0.7978 H       
  32 H32            0.1396     4.0023     0.5246 H       
  33 H33            0.2488     3.8518     2.2949 H       
  34 H34            1.1222     2.7067     1.2488 H       
  35 H35            2.1771     0.8168    -0.2426 H       
  36 H36           -3.1460     2.5484     1.4987 H       
  37 H37           -2.2437     3.7594     2.4408 H       
  38 H38           -2.3529     3.9098     0.6706 H       
  39 H39            0.0089     0.7957     2.4112 H       
  40 H40           -0.8645     1.9408     3.4573 H       
  41 H41           -1.7668     0.7299     2.5151 H       
  42 H42           -2.5976     0.4079     0.8682 H       
  43 H43           -6.2030    -3.4954    -2.8226 H       
  44 H44           -7.4797    -2.3264    -2.3962 H       
  45 H45           -4.5203     0.2974    -3.9710 H       
  46 H46           -3.1085    -0.7882    -3.8693 H       
  47 H47           -4.8890    -1.4814    -5.5776 H       
  48 H48           -4.4625    -2.7274    -4.3810 H       
  49 H49           -6.7305    -3.5016    -5.2780 H       
  50 H50           -8.1709    -2.6372    -4.6896 H       
  51 H51           -7.8159    -2.2310    -7.1099 H       
  52 H52           -7.6316    -0.7270    -6.1760 H       
  53 H53           -6.1912    -1.5915    -6.7643 H       
  54 H54           -8.3549    -2.0610     3.2092 H       
  55 H55           -8.8940    -4.4111     2.7223 H       
  56 H56           -6.3020    -4.3248    -0.6664 H       
@<TRIPOS>BOND
   1    1    5 2
   2    1    6 1
   3    1    2 1
   4    2    3 1
   5    2   11 1
   6    2   31 1
   7    3    4 1
   8    3    7 1
   9    3    8 1
  10    4   32 1
  11    4   33 1
  12    4   34 1
  13    6   35 1
  14    7   36 1
  15    7   37 1
  16    7   38 1
  17    8   39 1
  18    8   40 1
  19    8   41 1
  20    9   10 2
  21    9   11 am
  22    9   19 am
  23   11   42 1
  24   12   13 1
  25   12   17 1
  26   12   43 1
  27   12   44 1
  28   13   14 2
  29   13   20 1
  30   14   15 1
  31   14   19 1
  32   15   16 1
  33   15   45 1
  34   15   46 1
  35   16   17 1
  36   16   47 1
  37   16   48 1
  38   17   21 1
  39   18   19 1
  40   18   20 2
  41   20   23 1
  42   21   22 1
  43   21   49 1
  44   21   50 1
  45   22   51 1
  46   22   52 1
  47   22   53 1
  48   23   24 ar
  49   23   28 ar
  50   24   25 ar
  51   24   30 1
  52   25   26 ar
  53   25   54 1
  54   26   27 ar
  55   26   55 1
  56   27   28 ar
  57   27   29 1
  58   28   56 1

#	End of record

