#	Name: ASD03730884
#	Creating user name:	WinNT
#	Creation time:	15. 06. 2019 20:44

#	Modifying user name:	WinNT
#	Modification time:	15. 06. 2019 20:44

#	Program:	/corina/corina34_cracker 3.40 0067  02.08.2006

@<TRIPOS>MOLECULE
ASD03730884
  59   65    0    0    0
SMALL
NO_CHARGES


@<TRIPOS>ATOM
   1 C1            -0.0182     1.4735     0.0147 C.2     
   2 C2             0.0015    -0.0045     0.0117 C.ar    
   3 C3             1.2179    -0.6895     0.0011 C.ar    
   4 C4             1.2291    -2.0688    -0.0012 C.ar    
   5 C5             0.0382    -2.7735     0.0064 C.ar    
   6 C6            -1.1706    -2.1009     0.0164 C.ar    
   7 C7            -1.1960    -0.7214     0.0251 C.ar    
   8 O8             1.0264     2.0953     0.0081 O.2     
   9 N9            -1.1942     2.1319     0.0193 N.am    
  10 C10            2.5412    -2.8099    -0.0126 C.3     
  11 O11           -0.9092    -3.3011     6.2759 O.3     
  12 C12           -0.9528    -3.5508     7.6932 C.3     
  13 O13           -0.0483    -4.6563     7.8740 O.3     
  14 C14            0.8514    -4.5639     6.8509 C.ar    
  15 C15            0.3210    -3.7313     5.8680 C.ar    
  16 C16            2.1009    -5.1313     6.6762 C.ar    
  17 C17            2.8351    -4.8781     5.5215 C.ar    
  18 C18            2.2912    -4.0514     4.5431 C.ar    
  19 C19            1.0484    -3.4792     4.7170 C.ar    
  20 O20            4.0758    -5.3172     5.1634 O.3     
  21 C21            3.2949    -3.9952     3.4227 C.3     
  22 C22            4.2439    -5.1585     3.7415 C.3     
  23 N23            2.9771    -3.0523     1.3649 N.am    
  24 C24            2.6513    -4.1509     2.0750 C.2     
  25 C25            4.0177    -2.6820     3.3690 C.ar    
  26 C26            4.7881    -1.9825     4.2709 C.ar    
  27 C27            5.3348    -0.7623     3.9155 C.ar    
  28 C28            5.1051    -0.2467     2.6529 C.ar    
  29 C29            4.3333    -0.9431     1.7463 C.ar    
  30 C30            3.7794    -2.1724     2.0953 C.ar    
  31 O31            1.9719    -5.0825     1.6988 O.2     
  32 C32           -1.2149     3.5255     0.1325 C.ar    
  33 C33           -2.1829     4.2634    -0.5361 C.ar    
  34 C34           -2.2004     5.6417    -0.4219 C.ar    
  35 C35           -1.2530     6.2846     0.3582 C.ar    
  36 C36           -0.2889     5.5510     1.0237 C.ar    
  37 C37           -0.2709     4.1738     0.9184 C.ar    
  38 F38           -3.1413     6.3612    -1.0715 F       
  39 H39            2.1480    -0.1407    -0.0055 H       
  40 H40            0.0525    -3.8534     0.0042 H       
  41 H41           -2.0965    -2.6568     0.0216 H       
  42 H42           -2.1403    -0.1975     0.0375 H       
  43 H43           -2.0262     1.6389    -0.0560 H       
  44 H44            2.4159    -3.7627    -0.5270 H       
  45 H45            3.2913    -2.2129    -0.5313 H       
  46 H46           -0.6063    -2.6780     8.2466 H       
  47 H47           -1.9610    -3.8263     8.0027 H       
  48 H48            2.5093    -5.7752     7.4411 H       
  49 H49            0.6412    -2.8332     3.9532 H       
  50 H50            5.2738    -4.8952     3.5004 H       
  51 H51            3.9402    -6.0619     3.2126 H       
  52 H52            4.9660    -2.3869     5.2564 H       
  53 H53            5.9398    -0.2138     4.6223 H       
  54 H54            5.5318     0.7059     2.3756 H       
  55 H55            4.1580    -0.5337     0.7624 H       
  56 H56           -2.9208     3.7618    -1.1446 H       
  57 H57           -1.2677     7.3609     0.4462 H       
  58 H58            0.4486     6.0551     1.6308 H       
  59 H59            0.4801     3.6016     1.4428 H       
@<TRIPOS>BOND
   1    1    2 1
   2    1    8 2
   3    1    9 am
   4    2    3 ar
   5    2    7 ar
   6    3    4 ar
   7    3   39 1
   8    4    5 ar
   9    4   10 1
  10    5    6 ar
  11    5   40 1
  12    6    7 ar
  13    6   41 1
  14    7   42 1
  15    9   32 1
  16    9   43 1
  17   10   23 1
  18   10   44 1
  19   10   45 1
  20   11   12 1
  21   11   15 1
  22   12   13 1
  23   12   46 1
  24   12   47 1
  25   13   14 1
  26   14   15 ar
  27   14   16 ar
  28   15   19 ar
  29   16   17 ar
  30   16   48 1
  31   17   18 ar
  32   17   20 1
  33   18   19 ar
  34   18   21 1
  35   19   49 1
  36   20   22 1
  37   21   22 1
  38   21   24 1
  39   21   25 1
  40   22   50 1
  41   22   51 1
  42   23   24 am
  43   23   30 1
  44   24   31 2
  45   25   26 ar
  46   25   30 ar
  47   26   27 ar
  48   26   52 1
  49   27   28 ar
  50   27   53 1
  51   28   29 ar
  52   28   54 1
  53   29   30 ar
  54   29   55 1
  55   32   33 ar
  56   32   37 ar
  57   33   34 ar
  58   33   56 1
  59   34   35 ar
  60   34   38 1
  61   35   36 ar
  62   35   57 1
  63   36   37 ar
  64   36   58 1
  65   37   59 1

#	End of record

