#	Name: ASD01190018
#	Creating user name:	WinNT
#	Creation time:	15. 06. 2019 19:07

#	Modifying user name:	WinNT
#	Modification time:	15. 06. 2019 19:07

#	Program:	/corina/corina34_cracker 3.40 0067  02.08.2006

@<TRIPOS>MOLECULE
ASD01190018
  66   69    0    0    0
SMALL
NO_CHARGES


@<TRIPOS>ATOM
   1 C1            -0.0187     1.5275     0.0104 C.3     
   2 C2            -3.7201    -0.0712     5.2114 C.ar    
   3 C3            -2.9155     0.1598     6.3174 C.ar    
   4 C4            -1.5554     0.3564     6.1502 C.ar    
   5 C5            -0.9840     0.3244     4.8841 C.ar    
   6 C6            -1.7961     0.1009     3.7867 C.ar    
   7 C7            -3.1553    -0.1003     3.9526 C.ar    
   8 C8             0.5049     0.5363     4.7916 C.3     
   9 C9             0.9564     0.7736     3.3438 C.3     
  10 C10            0.2610    -0.2920     2.5014 C.3     
  11 C11           -1.2143     0.1069     2.4009 C.3     
  12 C12            0.8403    -0.5818     1.1610 C.3     
  13 C13            0.0021    -0.0041     0.0020 C.3     
  14 C14           -1.3980    -0.5573    -0.0153 C.3     
  15 C15           -1.9314    -0.7880     1.4099 C.3     
  16 C16            2.2379    -0.0304     0.8448 C.3     
  17 C17            2.3224    -0.1471    -0.7018 C.3     
  18 C18            0.8793    -0.4141    -1.2009 C.3     
  19 O19           -3.4606     0.1935     7.5618 O.3     
  20 O20            0.6987    -1.7979    -1.4897 O.3     
  21 C21           -4.8707    -0.0172     7.6584 C.3     
  22 C22           -5.2916     0.0550     9.1036 C.2     
  23 N23           -6.5861    -0.1150     9.4378 N.am    
  24 O24           -4.4654     0.2661     9.9660 O.2     
  25 C25           -6.9953    -0.0448    10.8427 C.3     
  26 C26           -8.5050    -0.2703    10.9461 C.3     
  27 C27           -8.9324    -0.1970    12.4134 C.3     
  28 C28          -10.4421    -0.4226    12.5167 C.3     
  29 C29          -10.8694    -0.3492    13.9840 C.3     
  30 H30            0.9780     1.9057    -0.2168 H       
  31 H31           -0.7230     1.8855    -0.7405 H       
  32 H32           -0.3259     1.8813     0.9946 H       
  33 H33           -4.7813    -0.2246     5.3328 H       
  34 H34           -0.9311     0.5366     7.0135 H       
  35 H35           -3.7871    -0.2766     3.0950 H       
  36 H36            0.7815     1.4003     5.3923 H       
  37 H37            1.0138    -0.3477     5.1760 H       
  38 H38            0.6510     1.7662     3.0248 H       
  39 H39            2.0351     0.6627     3.2756 H       
  40 H40            0.2960    -1.2327     3.0914 H       
  41 H41           -1.2840     1.1402     2.0662 H       
  42 H42            0.8903    -1.6858     1.0369 H       
  43 H43           -2.0627     0.1405    -0.5430 H       
  44 H44           -1.4177    -1.5085    -0.5641 H       
  45 H45           -1.7908    -1.8363     1.6889 H       
  46 H46           -3.0056    -0.5709     1.4278 H       
  47 H47            2.3448     1.0001     1.1696 H       
  48 H48            3.0045    -0.6541     1.3135 H       
  49 H49            2.6996     0.7828    -1.1275 H       
  50 H50            2.9727    -0.9758    -0.9791 H       
  51 H51            0.6418     0.2061    -2.0568 H       
  52 H52            1.2785    -2.1331    -2.1872 H       
  53 H53           -5.3928     0.7518     7.0890 H       
  54 H54           -5.1197    -0.9992     7.2561 H       
  55 H55           -7.2469    -0.2838     8.7480 H       
  56 H56           -6.4732    -0.8138    11.4121 H       
  57 H57           -6.7463     0.9372    11.2450 H       
  58 H58           -9.0271     0.4987    10.3767 H       
  59 H59           -8.7541    -1.2523    10.5438 H       
  60 H60           -8.4103    -0.9660    12.9827 H       
  61 H61           -8.6833     0.7849    12.8157 H       
  62 H62          -10.9642     0.3464    11.9474 H       
  63 H63          -10.6912    -1.4045    12.1144 H       
  64 H64          -10.3474    -1.1183    14.5534 H       
  65 H65          -10.6204     0.6327    14.3864 H       
  66 H66          -11.9450    -0.5099    14.0577 H       
@<TRIPOS>BOND
   1    1   13 1
   2    1   30 1
   3    1   31 1
   4    1   32 1
   5    2    3 ar
   6    2    7 ar
   7    2   33 1
   8    3    4 ar
   9    3   19 1
  10    4    5 ar
  11    4   34 1
  12    5    6 ar
  13    5    8 1
  14    6    7 ar
  15    6   11 1
  16    7   35 1
  17    8    9 1
  18    8   36 1
  19    8   37 1
  20    9   10 1
  21    9   38 1
  22    9   39 1
  23   10   11 1
  24   10   12 1
  25   10   40 1
  26   11   15 1
  27   11   41 1
  28   12   13 1
  29   12   16 1
  30   12   42 1
  31   13   14 1
  32   13   18 1
  33   14   15 1
  34   14   43 1
  35   14   44 1
  36   15   45 1
  37   15   46 1
  38   16   17 1
  39   16   47 1
  40   16   48 1
  41   17   18 1
  42   17   49 1
  43   17   50 1
  44   18   20 1
  45   18   51 1
  46   19   21 1
  47   20   52 1
  48   21   22 1
  49   21   53 1
  50   21   54 1
  51   22   23 am
  52   22   24 2
  53   23   25 1
  54   23   55 1
  55   25   26 1
  56   25   56 1
  57   25   57 1
  58   26   27 1
  59   26   58 1
  60   26   59 1
  61   27   28 1
  62   27   60 1
  63   27   61 1
  64   28   29 1
  65   28   62 1
  66   28   63 1
  67   29   64 1
  68   29   65 1
  69   29   66 1

#	End of record

