#	Name: ASD01816465
#	Creating user name:	WinNT
#	Creation time:	15. 06. 2019 19:35

#	Modifying user name:	WinNT
#	Modification time:	15. 06. 2019 19:35

#	Program:	/corina/corina34_cracker 3.40 0067  02.08.2006

@<TRIPOS>MOLECULE
ASD01816465
  53   58    0    0    0
SMALL
NO_CHARGES


@<TRIPOS>ATOM
   1 C1            -0.0753     1.3139     0.1753 C.ar    
   2 C2            -0.0314    -0.0708     0.1634 C.ar    
   3 C3             1.1774    -0.7356     0.0949 C.ar    
   4 C4             2.3669    -0.0139     0.0369 C.ar    
   5 C5             2.3169     1.3894     0.0487 C.ar    
   6 C6             1.0924     2.0465     0.1180 C.ar    
   7 N7             3.5829    -0.6734    -0.0311 N.pl3   
   8 C8             4.7604    -0.0313    -0.0890 C.2     
   9 C9             4.8360     1.3396    -0.0845 C.2     
  10 C10            3.5889     2.1345    -0.0136 C.2     
  11 C11            5.9124     2.3240    -0.1354 C.2     
  12 N12            5.3166     3.5354    -0.0968 N.am    
  13 N13            3.9288     3.3913    -0.0242 N.2     
  14 C14            5.9914     4.7576    -0.1252 C.ar    
  15 O15            7.1097     2.0979    -0.1995 O.2     
  16 C16            3.5843    -2.1384    -0.0397 C.3     
  17 C17            3.7120    -2.6489     1.3724 C.ar    
  18 C18            2.5875    -2.7643     2.1688 C.ar    
  19 C19            2.7014    -3.2315     3.4635 C.ar    
  20 C20            3.9466    -3.5858     3.9651 C.ar    
  21 C21            5.0738    -3.4693     3.1629 C.ar    
  22 C22            4.9528    -3.0064     1.8673 C.ar    
  23 N23            4.0656    -4.0599     5.2790 N.pl3   
  24 C24            5.2124    -4.4374     5.8881 C.2     
  25 C25            4.9010    -4.8295     7.1452 C.2     
  26 C26            3.5189    -4.6875     7.3110 C.2     
  27 N27            3.0184    -4.2207     6.1954 N.2     
  28 C28            6.8853     5.0572    -1.1524 C.ar    
  29 C29            7.5319     6.2756    -1.1450 C.ar    
  30 N30            7.3135     7.1520    -0.1826 N.ar    
  31 C31            6.4747     6.9061     0.8075 C.ar    
  32 C32            5.7843     5.7116     0.8695 C.ar    
  33 F33            1.2057    -2.0862     0.0845 F       
  34 Cl34           6.2323     8.1016     2.0427 Cl      
  35 C35            4.8287     5.4392     2.0025 C.3     
  36 H36           -1.0272     1.8217     0.2250 H       
  37 H37           -0.9508    -0.6357     0.2086 H       
  38 H38            1.0562     3.1258     0.1266 H       
  39 H39            5.6720    -0.6081    -0.1400 H       
  40 H40            2.6522    -2.5000    -0.4739 H       
  41 H41            4.4250    -2.4974    -0.6333 H       
  42 H42            1.6191    -2.4885     1.7780 H       
  43 H43            1.8229    -3.3207     4.0853 H       
  44 H44            6.0438    -3.7438     3.5505 H       
  45 H45            5.8292    -2.9155     1.2428 H       
  46 H46            6.1994    -4.4281     5.4497 H       
  47 H47            5.5965    -5.1888     7.8893 H       
  48 H48            2.9618    -4.9188     8.2068 H       
  49 H49            7.0693     4.3448    -1.9430 H       
  50 H50            8.2261     6.5155    -1.9367 H       
  51 H51            3.8327     5.7878     1.7296 H       
  52 H52            4.7969     4.3680     2.2014 H       
  53 H53            5.1654     5.9648     2.8961 H       
@<TRIPOS>BOND
   1    1    2 ar
   2    1    6 ar
   3    1   36 1
   4    2    3 ar
   5    2   37 1
   6    3    4 ar
   7    3   33 1
   8    4    5 ar
   9    4    7 1
  10    5    6 ar
  11    5   10 1
  12    6   38 1
  13    7    8 1
  14    7   16 1
  15    8    9 2
  16    8   39 1
  17    9   10 1
  18    9   11 1
  19   10   13 2
  20   11   12 am
  21   11   15 2
  22   12   13 1
  23   12   14 1
  24   14   28 ar
  25   14   32 ar
  26   16   17 1
  27   16   40 1
  28   16   41 1
  29   17   18 ar
  30   17   22 ar
  31   18   19 ar
  32   18   42 1
  33   19   20 ar
  34   19   43 1
  35   20   21 ar
  36   20   23 1
  37   21   22 ar
  38   21   44 1
  39   22   45 1
  40   23   24 1
  41   23   27 1
  42   24   25 2
  43   24   46 1
  44   25   26 1
  45   25   47 1
  46   26   27 2
  47   26   48 1
  48   28   29 ar
  49   28   49 1
  50   29   30 ar
  51   29   50 1
  52   30   31 ar
  53   31   32 ar
  54   31   34 1
  55   32   35 1
  56   35   51 1
  57   35   52 1
  58   35   53 1

#	End of record

