#	Name: ASD01884292
#	Creating user name:	WinNT
#	Creation time:	15. 06. 2019 19:47

#	Modifying user name:	WinNT
#	Modification time:	15. 06. 2019 19:47

#	Program:	/corina/corina34_cracker 3.40 0067  02.08.2006

@<TRIPOS>MOLECULE
ASD01884292
  36   38    0    0    0
SMALL
NO_CHARGES


@<TRIPOS>ATOM
   1 O1            -0.0163     1.3504     0.0095 O.3     
   2 C2             0.1792     0.0139    -0.0929 C.2     
   3 C3             1.4589    -0.5051    -0.1641 C.2     
   4 C4            -0.9183    -0.8694    -0.1226 C.2     
   5 C5            -0.7073    -2.1992    -0.2245 C.2     
   6 N6             0.5532    -2.7019    -0.2989 N.am    
   7 C7             1.6271    -1.8912    -0.2689 C.2     
   8 O8             2.7506    -2.3652    -0.3375 O.2     
   9 C9             0.7462    -4.1500    -0.4082 C.3     
  10 C10            0.7696    -4.5513    -1.8845 C.3     
  11 C11            1.0792    -6.0129    -2.2144 C.3     
  12 I12            3.1238     0.7657    -0.1166 I       
  13 C13           -0.6587     1.9983    -1.0904 C.3     
  14 C14           -0.6885     3.4856    -0.8496 C.ar    
  15 C15           -0.3433    -5.4754    -2.3830 C.3     
  16 C16            0.3543     4.2783    -1.2911 C.ar    
  17 C17            0.3271     5.6426    -1.0702 C.ar    
  18 C18           -0.7433     6.2143    -0.4081 C.ar    
  19 C19           -1.7866     5.4217     0.0327 C.ar    
  20 C20           -1.7613     4.0580    -0.1921 C.ar    
  21 H21           -1.9255    -0.4840    -0.0636 H       
  22 H22           -1.5515    -2.8724    -0.2469 H       
  23 H23            1.6915    -4.4268     0.0586 H       
  24 H24           -0.0721    -4.6647     0.0953 H       
  25 H25            1.1388    -3.7909    -2.5726 H       
  26 H26            1.6518    -6.2141    -3.1198 H       
  27 H27            1.2663    -6.6885    -1.3797 H       
  28 H28           -0.1076     1.7896    -2.0073 H       
  29 H29           -1.6784     1.6253    -1.1865 H       
  30 H30           -1.0921    -5.7974    -1.6593 H       
  31 H31           -0.7065    -5.3229    -3.3994 H       
  32 H32            1.1906     3.8317    -1.8084 H       
  33 H33            1.1422     6.2618    -1.4146 H       
  34 H34           -0.7643     7.2801    -0.2349 H       
  35 H35           -2.6227     5.8683     0.5503 H       
  36 H36           -2.5764     3.4388     0.1523 H       
@<TRIPOS>BOND
   1    1    2 1
   2    1   13 1
   3    2    3 2
   4    2    4 1
   5    3   12 1
   6    3    7 1
   7    4    5 2
   8    4   21 1
   9    5    6 1
  10    5   22 1
  11    6    7 am
  12    6    9 1
  13    7    8 2
  14    9   10 1
  15    9   23 1
  16    9   24 1
  17   10   11 1
  18   10   15 1
  19   10   25 1
  20   11   15 1
  21   11   26 1
  22   11   27 1
  23   13   14 1
  24   13   28 1
  25   13   29 1
  26   14   16 ar
  27   14   20 ar
  28   15   30 1
  29   15   31 1
  30   16   17 ar
  31   16   32 1
  32   17   18 ar
  33   17   33 1
  34   18   19 ar
  35   18   34 1
  36   19   20 ar
  37   19   35 1
  38   20   36 1

#	End of record

