#	Name: ASD01510034
#	Creating user name:	WinNT
#	Creation time:	15. 06. 2019 19:21

#	Modifying user name:	WinNT
#	Modification time:	15. 06. 2019 19:21

#	Program:	/corina/corina34_cracker 3.40 0067  02.08.2006

@<TRIPOS>MOLECULE
ASD01510034
  54   56    0    0    0
SMALL
NO_CHARGES


@<TRIPOS>ATOM
   1 C1            -0.0187     1.5258     0.0104 C.3     
   2 C2             0.0021    -0.0041     0.0020 C.3     
   3 O3            -1.3386    -0.4987     0.0122 O.3     
   4 C4            -1.4980    -1.8456     0.0065 C.ar    
   5 N5            -0.4398    -2.6492    -0.0080 N.ar    
   6 C6            -0.5868    -3.9652    -0.0137 C.ar    
   7 N7            -1.7825    -4.5342    -0.0054 N.ar    
   8 C8            -2.8878    -3.7967     0.0091 C.ar    
   9 C9            -2.7749    -2.4066     0.0214 C.ar    
  10 S10           -4.2100    -1.3843     0.0415 S.3     
  11 C11           -4.4465    -1.2232     1.7801 C.ar    
  12 N12           -5.4630    -0.5009     2.2289 N.ar    
  13 C13           -5.6728    -0.3576     3.5353 C.ar    
  14 N14           -6.7386     0.3992     3.9966 N.pl3   
  15 C15           -4.8080    -0.9780     4.4325 C.ar    
  16 C16           -3.7517    -1.7284     3.9238 C.ar    
  17 N17           -3.6066    -1.8318     2.6049 N.ar    
  18 N18           -2.8655    -2.3638     4.7797 N.pl3   
  19 O19           -4.1086    -4.3876     0.0175 O.3     
  20 C20           -4.1380    -5.8163     0.0101 C.3     
  21 C21           -5.5906    -6.2966     0.0213 C.3     
  22 N22            0.5423    -4.7695    -0.0292 N.3     
  23 C23            0.1752    -6.1925    -0.0334 C.3     
  24 C24            1.4436    -7.0434    -0.1309 C.3     
  25 N25            2.3266    -6.7335     1.0022 N.3     
  26 C26            2.6937    -5.3106     1.0063 C.3     
  27 C27            1.4253    -4.4596     1.1038 C.3     
  28 C28            3.5230    -7.5858     0.9857 C.3     
  29 H29            1.0039     1.9031     0.0027 H       
  30 H30           -0.5459     1.8868    -0.8726 H       
  31 H31           -0.5289     1.8773     0.9072 H       
  32 H32            0.5123    -0.3556    -0.8948 H       
  33 H33            0.5293    -0.3651     0.8851 H       
  34 H34           -7.3375     0.8286     3.3658 H       
  35 H35           -6.8856     0.4995     4.9501 H       
  36 H36           -4.9530    -0.8792     5.4981 H       
  37 H37           -2.9794    -2.2872     5.7400 H       
  38 H38           -2.1316    -2.8851     4.4184 H       
  39 H39           -3.6402    -6.1852    -0.8867 H       
  40 H40           -3.6233    -6.1949     0.8931 H       
  41 H41           -6.0883    -5.9277     0.9180 H       
  42 H42           -6.1053    -5.9180    -0.8618 H       
  43 H43           -5.6129    -7.3864     0.0155 H       
  44 H44           -0.3548    -6.4340     0.8880 H       
  45 H45           -0.4683    -6.3996    -0.8884 H       
  46 H46            1.1758    -8.0997    -0.1049 H       
  47 H47            1.9594    -6.8216    -1.0651 H       
  48 H48            3.3371    -5.1034     1.8614 H       
  49 H49            3.2237    -5.0690     0.0850 H       
  50 H50            1.6931    -3.4033     1.0779 H       
  51 H51            0.9095    -4.6814     2.0381 H       
  52 H52            4.0730    -7.4220     0.0590 H       
  53 H53            4.1591    -7.3356     1.8348 H       
  54 H54            3.2247    -8.6321     1.0511 H       
@<TRIPOS>BOND
   1    1    2 1
   2    1   29 1
   3    1   30 1
   4    1   31 1
   5    2    3 1
   6    2   32 1
   7    2   33 1
   8    3    4 1
   9    4    5 ar
  10    4    9 ar
  11    5    6 ar
  12    6    7 ar
  13    6   22 1
  14    7    8 ar
  15    8    9 ar
  16    8   19 1
  17    9   10 1
  18   10   11 1
  19   11   12 ar
  20   11   17 ar
  21   12   13 ar
  22   13   14 1
  23   13   15 ar
  24   14   34 1
  25   14   35 1
  26   15   16 ar
  27   15   36 1
  28   16   17 ar
  29   16   18 1
  30   18   37 1
  31   18   38 1
  32   19   20 1
  33   20   21 1
  34   20   39 1
  35   20   40 1
  36   21   41 1
  37   21   42 1
  38   21   43 1
  39   22   23 1
  40   22   27 1
  41   23   24 1
  42   23   44 1
  43   23   45 1
  44   24   25 1
  45   24   46 1
  46   24   47 1
  47   25   26 1
  48   25   28 1
  49   26   27 1
  50   26   48 1
  51   26   49 1
  52   27   50 1
  53   27   51 1
  54   28   52 1
  55   28   53 1
  56   28   54 1

#	End of record

