#	Name: ASD03331076
#	Creating user name:	WinNT
#	Creation time:	15. 06. 2019 20:38

#	Modifying user name:	WinNT
#	Modification time:	15. 06. 2019 20:38

#	Program:	/corina/corina34_cracker 3.40 0067  02.08.2006

@<TRIPOS>MOLECULE
ASD03331076
  70   74    0    0    0
SMALL
NO_CHARGES


@<TRIPOS>ATOM
   1 N1            -0.7031     1.6247    -0.4214 N.pl3   
   2 C2            -0.5807     0.3006    -0.1380 C.2     
   3 C3             0.7024    -0.4072     0.2113 C.3     
   4 N4             1.4238     0.3755     1.2270 N.3     
   5 C5             2.3092     1.3623     0.6057 C.3     
   6 C6             1.7084     1.8942    -0.6922 C.3     
   7 C7             0.3852     2.6060    -0.3976 C.3     
   8 C8            -2.0147     1.8601    -0.7150 C.2     
   9 N9            -2.6783     0.7336    -0.6004 N.2     
  10 C10           -1.8223    -0.2485    -0.2425 C.2     
  11 C11           -2.1701    -1.6611    -0.0078 C.2     
  12 O12           -1.3060    -2.4551     0.3116 O.2     
  13 N13           -3.4457    -2.0732    -0.1471 N.am    
  14 C14            2.1709    -0.5035     2.1364 C.3     
  15 C15           -5.0395    -3.8224    -0.6849 C.2     
  16 C16           -3.7915    -3.4775     0.0862 C.3     
  17 C17           -4.0367    -3.7010     1.5798 C.3     
  18 C18           -4.4606    -5.1521     1.8155 C.3     
  19 O19           -5.8642    -2.9646    -0.9190 O.2     
  20 C20           -2.7505    -3.4128     2.3566 C.3     
  21 C21           -5.1445    -2.7616     2.0609 C.3     
  22 C22           -4.1313    -6.8987    -2.2257 C.2     
  23 C23           -4.2038    -6.1197    -0.9345 C.3     
  24 N24           -5.0387    -6.7831    -3.2285 N.pl3   
  25 N25           -5.2391    -5.0843    -1.1144 N.am    
  26 C26           -6.4956    -5.4685    -1.7754 C.3     
  27 C27           -6.1982    -5.8924    -3.2186 C.3     
  28 N28           -3.5482    -8.2157    -3.7695 N.2     
  29 N29           -3.2485    -7.7742    -2.5958 N.2     
  30 C30           -4.6410    -7.6354    -4.1941 C.2     
  31 C31           -2.5922     3.1667    -1.0980 C.ar    
  32 C32           -3.4525     3.2592    -2.1955 C.ar    
  33 C33           -3.9888     4.4836    -2.5473 C.ar    
  34 C34           -3.6755     5.6146    -1.8158 C.ar    
  35 C35           -2.8235     5.5290    -0.7278 C.ar    
  36 C36           -2.2852     4.3110    -0.3620 C.ar    
  37 F37           -3.7587     2.1549    -2.9110 F       
  38 Cl38          -2.4361     6.9553     0.1828 Cl      
  39 H39            0.4763    -1.3973     0.6072 H       
  40 H40            1.3204    -0.5031    -0.6814 H       
  41 H41            2.4614     2.1918     1.2963 H       
  42 H42            3.2705     0.8956     0.3906 H       
  43 H43            2.4033     2.5969    -1.1520 H       
  44 H44            1.5289     1.0640    -1.3754 H       
  45 H45            0.2050     3.3685    -1.1553 H       
  46 H46            0.4337     3.0726     0.5863 H       
  47 H47           -4.1349    -1.4399    -0.4019 H       
  48 H48            2.8443    -1.1364     1.5583 H       
  49 H49            2.7504     0.1024     2.8329 H       
  50 H50            1.4726    -1.1288     2.6926 H       
  51 H51           -2.9713    -4.1137    -0.2465 H       
  52 H52           -3.6634    -5.8208     1.4908 H       
  53 H53           -4.6542    -5.3062     2.8771 H       
  54 H54           -5.3661    -5.3632     1.2466 H       
  55 H55           -2.4486    -2.3790     2.1887 H       
  56 H56           -2.9252    -3.5720     3.4207 H       
  57 H57           -1.9614    -4.0820     2.0139 H       
  58 H58           -6.0608    -2.9670     1.5075 H       
  59 H59           -5.3192    -2.9208     3.1249 H       
  60 H60           -4.8425    -1.7278     1.8930 H       
  61 H61           -4.4796    -6.7831    -0.1148 H       
  62 H62           -3.2414    -5.6516    -0.7279 H       
  63 H63           -6.9500    -6.3007    -1.2378 H       
  64 H64           -7.1794    -4.6197    -1.7789 H       
  65 H65           -5.9844    -5.0094    -3.8209 H       
  66 H66           -7.0620    -6.4145    -3.6302 H       
  67 H67           -5.1335    -7.8085    -5.1396 H       
  68 H68           -4.6535     4.5571    -3.3953 H       
  69 H69           -4.0971     6.5690    -2.0947 H       
  70 H70           -1.6246     4.2454     0.4899 H       
@<TRIPOS>BOND
   1    1    2 1
   2    1    7 1
   3    1    8 1
   4    2    3 1
   5    2   10 2
   6    3    4 1
   7    3   39 1
   8    3   40 1
   9    4    5 1
  10    4   14 1
  11    5    6 1
  12    5   41 1
  13    5   42 1
  14    6    7 1
  15    6   43 1
  16    6   44 1
  17    7   45 1
  18    7   46 1
  19    8    9 2
  20    8   31 1
  21    9   10 1
  22   10   11 1
  23   11   12 2
  24   11   13 am
  25   13   16 1
  26   13   47 1
  27   14   48 1
  28   14   49 1
  29   14   50 1
  30   15   19 2
  31   15   25 am
  32   15   16 1
  33   16   17 1
  34   16   51 1
  35   17   18 1
  36   17   20 1
  37   17   21 1
  38   18   52 1
  39   18   53 1
  40   18   54 1
  41   20   55 1
  42   20   56 1
  43   20   57 1
  44   21   58 1
  45   21   59 1
  46   21   60 1
  47   22   23 1
  48   22   24 1
  49   22   29 2
  50   23   25 1
  51   23   61 1
  52   23   62 1
  53   24   27 1
  54   24   30 1
  55   25   26 1
  56   26   27 1
  57   26   63 1
  58   26   64 1
  59   27   65 1
  60   27   66 1
  61   28   29 1
  62   28   30 2
  63   30   67 1
  64   31   32 ar
  65   31   36 ar
  66   32   33 ar
  67   32   37 1
  68   33   34 ar
  69   33   68 1
  70   34   35 ar
  71   34   69 1
  72   35   36 ar
  73   35   38 1
  74   36   70 1

#	End of record

