#	Name: ASD01810779
#	Creating user name:	WinNT
#	Creation time:	15. 06. 2019 19:25

#	Modifying user name:	WinNT
#	Modification time:	15. 06. 2019 19:25

#	Program:	/corina/corina34_cracker 3.40 0067  02.08.2006

@<TRIPOS>MOLECULE
ASD01810779
  15   14    0    0    0
SMALL
NO_CHARGES


@<TRIPOS>ATOM
   1 C1            -0.0184     1.5028     0.0103 C.2     
   2 C2             0.0021    -0.0041     0.0020 C.3     
   3 C3             1.4513    -0.4944    -0.0145 C.3     
   4 O4             1.0236     2.1234     0.0037 O.2     
   5 N5            -1.1946     2.1607     0.0195 N.am    
   6 N6            -1.2131     3.5266     0.0270 N.3     
   7 C7             1.4713    -1.9662    -0.0225 C.1     
   8 N8             1.4867    -3.1021    -0.0288 N.1     
   9 H9            -0.4983    -0.3791     0.8948 H       
  10 H10           -0.5153    -0.3696    -0.8850 H       
  11 H11            1.9516    -0.1193    -0.9073 H       
  12 H12            1.9686    -0.1289     0.8726 H       
  13 H13           -2.0280     1.6644     0.0207 H       
  14 H14           -0.6957     3.8995    -0.7548 H       
  15 H15           -2.1599     3.8753     0.0334 H       
@<TRIPOS>BOND
   1    1    2 1
   2    1    4 2
   3    1    5 am
   4    2    3 1
   5    2    9 1
   6    2   10 1
   7    3    7 1
   8    3   11 1
   9    3   12 1
  10    5    6 1
  11    5   13 1
  12    6   14 1
  13    6   15 1
  14    7    8 3

#	End of record

