#	Name: ASD08151075
#	Creating user name:	WinNT
#	Creation time:	15. 06. 2019 21:17

#	Modifying user name:	WinNT
#	Modification time:	15. 06. 2019 21:17

#	Program:	/corina/corina34_cracker 3.40 0067  02.08.2006

@<TRIPOS>MOLECULE
ASD08151075
  54   55    0    0    0
SMALL
NO_CHARGES


@<TRIPOS>ATOM
   1 C1             0.0268     1.4372     0.6405 C.ar    
   2 C2             0.0643     0.0601     0.9295 C.ar    
   3 C3             1.2913    -0.5765     1.1406 C.ar    
   4 C4             2.4679     0.1359     1.0683 C.ar    
   5 C5             2.4503     1.5038     0.7830 C.ar    
   6 C6             1.2249     2.1621     0.5665 C.ar    
   7 C7            -1.2685     2.1145     0.4102 C.ar    
   8 C8            -2.1992     2.2157     1.4447 C.ar    
   9 C9            -3.4075     2.8493     1.2242 C.ar    
  10 C10           -3.6953     3.3834    -0.0212 C.ar    
  11 C11           -2.7746     3.2857    -1.0518 C.ar    
  12 C12           -1.5610     2.6593    -0.8405 C.ar    
  13 C13           -1.1872    -0.7092     1.0098 C.2     
  14 O14           -1.1545    -1.9063     1.2610 O.co2   
  15 O15           -2.2608    -0.1520     0.8254 O.co2   
  16 C16            3.6789     2.2360     0.7109 C.1     
  17 C17            4.6861     2.8362     0.6518 C.1     
  18 Si18           6.3162     3.8077     0.5561 Si      
  19 C19            5.9535     5.5920     0.1618 C.3     
  20 C20            7.1999     3.7005     2.1926 C.3     
  21 C21            7.3934     3.0830    -0.7800 C.3     
  22 F22           -3.0614     3.8088    -2.2640 F       
  23 F23           -4.3099     2.9475     2.2249 F       
  24 N24            1.2031     3.4999     0.2863 N.2     
  25 N25            0.0770     4.1243     0.2088 N.2     
  26 N26            0.0573     5.5147     0.0374 N.pl3   
  27 C27            1.3115     6.2466    -0.1566 C.3     
  28 C28            1.5673     6.4323    -1.6535 C.3     
  29 C29           -1.2174     6.2366     0.0521 C.3     
  30 C30           -1.5868     6.5899     1.4942 C.3     
  31 Cl31           3.9822    -0.6704     1.3338 Cl      
  32 H32            1.3165    -1.6332     1.3621 H       
  33 H33           -1.9760     1.7993     2.4158 H       
  34 H34           -4.6408     3.8774    -0.1894 H       
  35 H35           -0.8420     2.5879    -1.6432 H       
  36 H36            5.2524     5.9908     0.8950 H       
  37 H37            6.8792     6.1666     0.1942 H       
  38 H38            5.5167     5.6625    -0.8343 H       
  39 H39            7.4121     2.6566     2.4233 H       
  40 H40            8.1351     4.2578     2.1378 H       
  41 H41            6.5697     4.1245     2.9744 H       
  42 H42            6.8764     3.1457    -1.7375 H       
  43 H43            8.3286     3.6403    -0.8349 H       
  44 H44            7.6056     2.0391    -0.5493 H       
  45 H45            1.2406     7.2225     0.3238 H       
  46 H46            2.1332     5.6830     0.2853 H       
  47 H47            2.5005     6.9769    -1.7978 H       
  48 H48            1.6382     5.4564    -2.1338 H       
  49 H49            0.7456     6.9959    -2.0954 H       
  50 H50           -1.1237     7.1511    -0.5335 H       
  51 H51           -1.9962     5.6074    -0.3788 H       
  52 H52           -1.7658     5.6745     2.0581 H       
  53 H53           -0.7688     7.1453     1.9531 H       
  54 H54           -2.4889     7.2017     1.4986 H       
@<TRIPOS>BOND
   1    1    2 ar
   2    1    6 ar
   3    1    7 1
   4    2    3 ar
   5    2   13 1
   6    3    4 ar
   7    3   32 1
   8    4    5 ar
   9    4   31 1
  10    5    6 ar
  11    5   16 1
  12    6   24 1
  13    7    8 ar
  14    7   12 ar
  15    8    9 ar
  16    8   33 1
  17    9   10 ar
  18    9   23 1
  19   10   11 ar
  20   10   34 1
  21   11   12 ar
  22   11   22 1
  23   12   35 1
  24   13   14 ar
  25   13   15 ar
  26   16   17 3
  27   17   18 1
  28   18   19 1
  29   18   20 1
  30   18   21 1
  31   19   36 1
  32   19   37 1
  33   19   38 1
  34   20   39 1
  35   20   40 1
  36   20   41 1
  37   21   42 1
  38   21   43 1
  39   21   44 1
  40   24   25 2
  41   25   26 1
  42   26   27 1
  43   26   29 1
  44   27   28 1
  45   27   45 1
  46   27   46 1
  47   28   47 1
  48   28   48 1
  49   28   49 1
  50   29   30 1
  51   29   50 1
  52   29   51 1
  53   30   52 1
  54   30   53 1
  55   30   54 1

#	End of record

