#	Name: ASD02198645
#	Creating user name:	WinNT
#	Creation time:	15. 06. 2019 20:19

#	Modifying user name:	WinNT
#	Modification time:	15. 06. 2019 20:19

#	Program:	/corina/corina34_cracker 3.40 0067  02.08.2006

@<TRIPOS>MOLECULE
ASD02198645
  49   53    0    0    0
SMALL
NO_CHARGES


@<TRIPOS>ATOM
   1 C1             0.0066     1.5063     0.1346 C.2     
   2 C2             0.0731     0.1663    -0.0933 C.2     
   3 N3            -1.0539    -0.5633    -0.2631 N.pl3   
   4 N4            -2.2315    -0.0591    -0.2231 N.2     
   5 C5            -2.4385     1.2238    -0.0106 C.2     
   6 C6            -1.2795     2.1040     0.1929 C.2     
   7 C7            -0.9271    -1.9372    -0.4944 C.ar    
   8 C8            -0.9219    -2.4270    -1.7968 C.ar    
   9 C9            -0.7965    -3.7859    -2.0245 C.ar    
  10 C10           -0.6763    -4.6589    -0.9605 C.ar    
  11 C11           -0.6808    -4.1752     0.3416 C.ar    
  12 C12           -0.8005    -2.8134     0.5747 C.ar    
  13 C13           -3.8114     1.7674     0.0284 C.2     
  14 N14           -4.3735     2.4807     1.0495 N.pl3   
  15 N15           -5.6850     2.7994     0.6759 N.2     
  16 C16           -5.9152     2.3062    -0.5147 C.2     
  17 C17           -4.7642     1.6560    -0.9602 C.2     
  18 C18           -3.7498     2.8303     2.2540 C.ar    
  19 C19           -3.9195     4.1036     2.7814 C.ar    
  20 C20           -3.3031     4.4453     3.9692 C.ar    
  21 C21           -2.5172     3.5211     4.6329 C.ar    
  22 C22           -2.3459     2.2524     4.1100 C.ar    
  23 C23           -2.9650     1.9025     2.9260 C.ar    
  24 O24           -1.4168     3.3020     0.3943 O.2     
  25 O25            1.1344     2.2469     0.3063 O.3     
  26 C26            2.3823     1.5542     0.2362 C.3     
  27 F27           -1.0398    -1.5756    -2.8391 F       
  28 N28           -0.5591    -5.0634     1.4201 N.pl3   
  29 C29           -0.3365    -6.3943     1.3338 C.2     
  30 C30           -0.2848    -6.8857     2.5937 C.2     
  31 C31           -0.4822    -5.8211     3.4797 C.2     
  32 N32           -0.6406    -4.7278     2.7778 N.2     
  33 H33            1.0362    -0.3203    -0.1395 H       
  34 H34           -0.7930    -4.1649    -3.0358 H       
  35 H35           -0.5789    -5.7192    -1.1414 H       
  36 H36           -0.8038    -2.4360     1.5867 H       
  37 H37           -6.8417     2.3919    -1.0631 H       
  38 H38           -4.6441     1.1501    -1.9068 H       
  39 H39           -4.5325     4.8261     2.2632 H       
  40 H40           -3.4347     5.4354     4.3799 H       
  41 H41           -2.0360     3.7907     5.5613 H       
  42 H42           -1.7313     1.5329     4.6305 H       
  43 H43           -2.8311     0.9114     2.5183 H       
  44 H44            2.4845     1.0879    -0.7437 H       
  45 H45            3.1987     2.2600     0.3896 H       
  46 H46            2.4156     0.7864     1.0091 H       
  47 H47           -0.2211    -6.9630     0.4230 H       
  48 H48           -0.1203    -7.9175     2.8669 H       
  49 H49           -0.4964    -5.8889     4.5575 H       
@<TRIPOS>BOND
   1    1    2 2
   2    1   25 1
   3    1    6 1
   4    2    3 1
   5    2   33 1
   6    3    4 1
   7    3    7 1
   8    4    5 2
   9    5    6 1
  10    5   13 1
  11    6   24 2
  12    7    8 ar
  13    7   12 ar
  14    8    9 ar
  15    8   27 1
  16    9   10 ar
  17    9   34 1
  18   10   11 ar
  19   10   35 1
  20   11   12 ar
  21   11   28 1
  22   12   36 1
  23   13   14 1
  24   13   17 2
  25   14   15 1
  26   14   18 1
  27   15   16 2
  28   16   17 1
  29   16   37 1
  30   17   38 1
  31   18   19 ar
  32   18   23 ar
  33   19   20 ar
  34   19   39 1
  35   20   21 ar
  36   20   40 1
  37   21   22 ar
  38   21   41 1
  39   22   23 ar
  40   22   42 1
  41   23   43 1
  42   25   26 1
  43   26   44 1
  44   26   45 1
  45   26   46 1
  46   28   29 1
  47   28   32 1
  48   29   30 2
  49   29   47 1
  50   30   31 1
  51   30   48 1
  52   31   32 2
  53   31   49 1

#	End of record

