#	Name: ASD02560079
#	Creating user name:	WinNT
#	Creation time:	15. 06. 2019 20:24

#	Modifying user name:	WinNT
#	Modification time:	15. 06. 2019 20:24

#	Program:	/corina/corina34_cracker 3.40 0067  02.08.2006

@<TRIPOS>MOLECULE
ASD02560079
  49   51    0    0    0
SMALL
NO_CHARGES


@<TRIPOS>ATOM
   1 C1             2.0160    -0.7018     0.4615 C.3     
   2 C2             0.9205    -0.3639    -0.5495 C.3     
   3 C3             0.8978     1.1159    -0.8279 C.ar    
   4 C4             1.4574     2.0272     0.0534 C.ar    
   5 N5             2.0717     1.5969     1.2376 N.am    
   6 C6             1.8620     0.2127     1.6838 C.3     
   7 C7             0.3020     1.5694    -1.9931 C.ar    
   8 C8             0.2633     2.9208    -2.2759 C.ar    
   9 C9             0.8195     3.8310    -1.3954 C.ar    
  10 C10            1.4159     3.3872    -0.2324 C.ar    
  11 C11            2.8419     2.4388     1.9549 C.2     
  12 S12            3.4721     1.9373     3.5221 S.3     
  13 O13            3.1020     3.5446     1.5205 O.2     
  14 C14            4.3927     3.4264     3.9818 C.3     
  15 C15            5.0367     3.2229     5.3290 C.2     
  16 N16            5.7780     4.2062     5.8769 N.am    
  17 O17            4.8880     2.1743     5.9201 O.2     
  18 C18            6.3077     4.0494     7.1631 C.ar    
  19 C19            6.5535     2.7785     7.6640 C.ar    
  20 C20            7.0768     2.6270     8.9337 C.ar    
  21 C21            7.3554     3.7394     9.7059 C.ar    
  22 C22            7.1120     5.0075     9.2106 C.ar    
  23 C23            6.5941     5.1664     7.9393 C.ar    
  24 Cl24           6.2891     6.7583     7.3176 Cl      
  25 S25            8.0216     3.5410    11.3250 S.o2    
  26 C26           -0.3859     3.4047    -3.5469 C.3     
  27 O27            7.6880     4.7207    12.0434 O.2     
  28 O28            7.6508     2.2383    11.7547 O.2     
  29 N29            9.6712     3.5333    11.1788 N.am    
  30 H30            1.9199    -1.7428     0.7699 H       
  31 H31            2.9939    -0.5424     0.0071 H       
  32 H32            1.1099    -0.9018    -1.4784 H       
  33 H33           -0.0458    -0.6693    -0.1482 H       
  34 H34            0.8603     0.1069     2.1003 H       
  35 H35            2.6053    -0.0491     2.4368 H       
  36 H36           -0.1341     0.8631    -2.6840 H       
  37 H37            0.7874     4.8874    -1.6177 H       
  38 H38            1.8501     4.0969     0.4563 H       
  39 H39            5.1635     3.6216     3.2363 H       
  40 H40            3.7103     4.2750     4.0298 H       
  41 H41            5.9445     5.0224     5.3800 H       
  42 H42            6.3356     1.9087     7.0620 H       
  43 H43            7.2681     1.6382     9.3237 H       
  44 H44            7.3308     5.8745     9.8163 H       
  45 H45           -1.4430     3.5979    -3.3642 H       
  46 H46            0.0998     4.3233    -3.8760 H       
  47 H47           -0.2841     2.6428    -4.3197 H       
  48 H48           10.0810     3.6288    10.3048 H       
  49 H49           10.2275     3.4332    11.9671 H       
@<TRIPOS>BOND
   1    1    2 1
   2    1    6 1
   3    1   30 1
   4    1   31 1
   5    2    3 1
   6    2   32 1
   7    2   33 1
   8    3    4 ar
   9    3    7 ar
  10    4    5 1
  11    4   10 ar
  12    5    6 1
  13    5   11 am
  14    6   34 1
  15    6   35 1
  16    7    8 ar
  17    7   36 1
  18    8    9 ar
  19    8   26 1
  20    9   10 ar
  21    9   37 1
  22   10   38 1
  23   11   12 1
  24   11   13 2
  25   12   14 1
  26   14   15 1
  27   14   39 1
  28   14   40 1
  29   15   16 am
  30   15   17 2
  31   16   18 1
  32   16   41 1
  33   18   19 ar
  34   18   23 ar
  35   19   20 ar
  36   19   42 1
  37   20   21 ar
  38   20   43 1
  39   21   22 ar
  40   21   25 1
  41   22   23 ar
  42   22   44 1
  43   23   24 1
  44   25   27 2
  45   25   28 2
  46   25   29 am
  47   26   45 1
  48   26   46 1
  49   26   47 1
  50   29   48 1
  51   29   49 1

#	End of record

