#	Name: ASD05303036
#	Creating user name:	WinNT
#	Creation time:	15. 06. 2019 20:58

#	Modifying user name:	WinNT
#	Modification time:	15. 06. 2019 20:58

#	Program:	/corina/corina34_cracker 3.40 0067  02.08.2006

@<TRIPOS>MOLECULE
ASD05303036
  45   47    0    0    0
SMALL
NO_CHARGES


@<TRIPOS>ATOM
   1 C1             7.1204     0.3524    -3.8012 C.ar    
   2 C2             6.9755    -0.9715    -3.4317 C.ar    
   3 C3             5.8894    -1.3628    -2.6684 C.ar    
   4 C4             4.9501    -0.4254    -2.2766 C.ar    
   5 C5             5.0948     0.9106    -2.6445 C.ar    
   6 C6             6.1848     1.2931    -3.4105 C.ar    
   7 O7             4.1804     1.8353    -2.2556 O.3     
   8 N8             3.8360    -0.8087    -1.5075 N.am    
   9 C9             2.9753     1.4316    -1.7788 C.ar    
  10 C10            2.7747     0.1081    -1.3926 C.ar    
  11 C11            1.5458    -0.2974    -0.9028 C.ar    
  12 C12            0.5112     0.6158    -0.7984 C.ar    
  13 C13            0.7060     1.9290    -1.1826 C.ar    
  14 C14            1.9329     2.3388    -1.6723 C.ar    
  15 C15            3.7867    -2.0120    -0.9024 C.2     
  16 O16            2.7289    -2.6052    -0.8139 O.2     
  17 N17            4.9099    -2.5578    -0.3954 N.am    
  18 C18            6.1374    -1.7625    -0.3114 C.3     
  19 C19            6.5175    -1.5649     1.1574 C.3     
  20 C20            4.9033    -3.9463     0.0716 C.3     
  21 C21            5.2799    -4.8751    -1.0845 C.3     
  22 C22            5.2730    -6.3252    -0.5967 C.3     
  23 C23            7.7243    -0.6289     1.2504 C.3     
  24 H24            7.9708     0.6546    -4.3944 H       
  25 H25            7.7100    -1.7011    -3.7391 H       
  26 H26            5.7752    -2.3972    -2.3796 H       
  27 H27            6.3038     2.3261    -3.7019 H       
  28 H28            1.3943    -1.3238    -0.6032 H       
  29 H29           -0.4491     0.3020    -0.4166 H       
  30 H30           -0.1041     2.6386    -1.1009 H       
  31 H31            2.0791     3.3665    -1.9705 H       
  32 H32            6.9436    -2.2829    -0.8285 H       
  33 H33            5.9737    -0.7912    -0.7782 H       
  34 H34            5.6761    -1.1273     1.6947 H       
  35 H35            6.7699    -2.5283     1.6002 H       
  36 H36            5.6255    -4.0612     0.8799 H       
  37 H37            3.9080    -4.2029     0.4344 H       
  38 H38            4.5577    -4.7602    -1.8928 H       
  39 H39            6.2752    -4.6185    -1.4473 H       
  40 H40            5.9951    -6.4401     0.2116 H       
  41 H41            4.2777    -6.5818    -0.2339 H       
  42 H42            5.5412    -6.9869    -1.4204 H       
  43 H43            8.5368    -1.0220     0.6394 H       
  44 H44            7.4448     0.3611     0.8901 H       
  45 H45            8.0508    -0.5592     2.2880 H       
@<TRIPOS>BOND
   1    1    2 ar
   2    1    6 ar
   3    1   24 1
   4    2    3 ar
   5    2   25 1
   6    3    4 ar
   7    3   26 1
   8    4    5 ar
   9    4    8 1
  10    5    6 ar
  11    5    7 1
  12    6   27 1
  13    7    9 1
  14    8   10 1
  15    8   15 am
  16    9   10 ar
  17    9   14 ar
  18   10   11 ar
  19   11   12 ar
  20   11   28 1
  21   12   13 ar
  22   12   29 1
  23   13   14 ar
  24   13   30 1
  25   14   31 1
  26   15   16 2
  27   15   17 am
  28   17   18 1
  29   17   20 1
  30   18   19 1
  31   18   32 1
  32   18   33 1
  33   19   23 1
  34   19   34 1
  35   19   35 1
  36   20   21 1
  37   20   36 1
  38   20   37 1
  39   21   22 1
  40   21   38 1
  41   21   39 1
  42   22   40 1
  43   22   41 1
  44   22   42 1
  45   23   43 1
  46   23   44 1
  47   23   45 1

#	End of record

