#	Name: ASD08710027
#	Creating user name:	WinNT
#	Creation time:	15. 06. 2019 21:19

#	Modifying user name:	WinNT
#	Modification time:	15. 06. 2019 21:19

#	Program:	/corina/corina34_cracker 3.40 0067  02.08.2006

@<TRIPOS>MOLECULE
ASD08710027
  49   51    0    0    0
SMALL
NO_CHARGES


@<TRIPOS>ATOM
   1 C1             0.9830     0.8376    -0.6637 C.ar    
   2 C2             0.7502    -0.5179    -0.5253 C.ar    
   3 C3             2.2789     1.3188    -0.6744 C.ar    
   4 C4             3.3419     0.4444    -0.5468 C.ar    
   5 C5             3.1090    -0.9111    -0.4079 C.ar    
   6 C6             1.8132    -1.3923    -0.3977 C.ar    
   7 S7             1.5164    -3.1201    -0.2201 S.o2    
   8 O8             0.2350    -3.3669    -0.7827 O.2     
   9 O9             2.6975    -3.7772    -0.6587 O.2     
  10 N10            1.3831    -3.4305     1.4010 N.am    
  11 C11            0.0627    -3.5075     2.0418 C.3     
  12 C12            2.5828    -3.6400     2.2236 C.3     
  13 C13            2.4575    -4.9915     2.9377 C.3     
  14 N14            1.1373    -5.0630     3.5795 N.am    
  15 C15           -0.0573    -4.8593     2.7562 C.3     
  16 C16            1.0288    -5.3165     4.8987 C.2     
  17 O17            2.0197    -5.5824     5.5499 O.2     
  18 C18           -0.2988    -5.2711     5.5551 C.ar    
  19 C19           -0.9685    -6.4582     5.8412 C.ar    
  20 C20           -2.2097    -6.3998     6.4560 C.ar    
  21 C21           -2.7374    -5.1557     6.7630 C.ar    
  22 C22           -2.0151    -4.0151     6.4491 C.ar    
  23 N23           -0.8374    -4.0995     5.8704 N.ar    
  24 C24           -0.3530    -7.7874     5.4872 C.3     
  25 C25            3.8242    -3.6449     1.3293 C.3     
  26 C26            2.5327     2.7965    -0.8258 C.3     
  27 F27            2.5696     3.3952     0.4381 F       
  28 F28            3.7575     2.9955    -1.4719 F       
  29 F29            1.5067     3.3707    -1.5840 F       
  30 H30            0.1526     1.5203    -0.7680 H       
  31 H31           -0.2623    -0.8938    -0.5166 H       
  32 H32            4.3543     0.8202    -0.5558 H       
  33 H33            3.9396    -1.5943    -0.3089 H       
  34 H34           -0.0397    -2.7001     2.7669 H       
  35 H35           -0.7168    -3.4235     1.2845 H       
  36 H36            2.6639    -2.8423     2.9620 H       
  37 H37            2.5557    -5.7991     2.2122 H       
  38 H38            3.2373    -5.0792     3.6942 H       
  39 H39           -0.9430    -4.8547     3.3915 H       
  40 H40           -0.1357    -5.6601     2.0209 H       
  41 H41           -2.7532    -7.3032     6.6900 H       
  42 H42           -3.7022    -5.0756     7.2417 H       
  43 H43           -2.4233    -3.0439     6.6869 H       
  44 H44            0.1822    -8.1817     6.3511 H       
  45 H45           -1.1380    -8.4855     5.1965 H       
  46 H46            0.3422    -7.6565     4.6579 H       
  47 H47            3.8315    -2.7459     0.7129 H       
  48 H48            4.7195    -3.6667     1.9506 H       
  49 H49            3.8059    -4.5255     0.6872 H       
@<TRIPOS>BOND
   1    1    2 ar
   2    1    3 ar
   3    1   30 1
   4    2    6 ar
   5    2   31 1
   6    3    4 ar
   7    3   26 1
   8    4    5 ar
   9    4   32 1
  10    5    6 ar
  11    5   33 1
  12    6    7 1
  13    7    8 2
  14    7    9 2
  15    7   10 am
  16   10   11 1
  17   10   12 1
  18   11   15 1
  19   11   34 1
  20   11   35 1
  21   12   13 1
  22   12   25 1
  23   12   36 1
  24   13   14 1
  25   13   37 1
  26   13   38 1
  27   14   15 1
  28   14   16 am
  29   15   39 1
  30   15   40 1
  31   16   17 2
  32   16   18 1
  33   18   19 ar
  34   18   23 ar
  35   19   20 ar
  36   19   24 1
  37   20   21 ar
  38   20   41 1
  39   21   22 ar
  40   21   42 1
  41   22   23 ar
  42   22   43 1
  43   24   44 1
  44   24   45 1
  45   24   46 1
  46   25   47 1
  47   25   48 1
  48   25   49 1
  49   26   27 1
  50   26   28 1
  51   26   29 1

#	End of record

