#	Name: ASD07930410
#	Creating user name:	WinNT
#	Creation time:	15. 06. 2019 21:12

#	Modifying user name:	WinNT
#	Modification time:	15. 06. 2019 21:12

#	Program:	/corina/corina34_cracker 3.40 0067  02.08.2006

@<TRIPOS>MOLECULE
ASD07930410
  45   47    0    0    0
SMALL
NO_CHARGES


@<TRIPOS>ATOM
   1 N1             1.9372    -2.8808    -0.4252 N.2     
   2 N2            -0.3256    -2.8518    -1.0086 N.pl3   
   3 C3            -1.3637    -1.8164    -0.9741 C.3     
   4 C4            -1.3747    -1.0660    -2.3131 C.3     
   5 S5             0.2937    -0.3998    -2.6082 S.o2    
   6 N6             1.2690    -1.7264    -2.3524 N.am    
   7 C7             0.9894    -2.4998    -1.2347 C.2     
   8 C8             2.3672    -2.0601    -3.2628 C.3     
   9 C9            -1.0673    -0.8332     0.1601 C.3     
  10 C10           -2.7078    -2.4587    -0.7462 C.ar    
  11 C11           -3.1981    -3.3780    -1.6578 C.ar    
  12 C12           -4.4330    -3.9703    -1.4515 C.ar    
  13 C13           -5.1784    -3.6444    -0.3336 C.ar    
  14 C14           -4.6864    -2.7212     0.5832 C.ar    
  15 C15           -3.4465    -2.1336     0.3754 C.ar    
  16 O16            0.4745    -0.0827    -3.9815 O.2     
  17 O17            0.6596     0.5155    -1.5847 O.2     
  18 F18           -2.4711    -3.6975    -2.7507 F       
  19 F19           -6.3832    -4.2216    -0.1321 F       
  20 N20           -5.4390    -2.3890     1.7168 N.am    
  21 C21           -4.8175    -2.0983     2.8768 C.2     
  22 O22           -3.6103    -2.2119     2.9648 O.2     
  23 C23           -5.6039    -1.6413     4.0425 C.ar    
  24 N24           -6.9225    -1.5192     3.9403 N.ar    
  25 C25           -7.6588    -1.1165     4.9514 C.ar    
  26 C26           -7.0807    -0.8004     6.1748 C.ar    
  27 C27           -5.7061    -0.9135     6.3269 C.ar    
  28 C28           -4.9545    -1.3471     5.2437 C.ar    
  29 F29           -7.8494    -0.3867     7.2059 F       
  30 F30           -3.6132    -1.4720     5.3462 F       
  31 H31            2.8562    -2.6239    -0.5994 H       
  32 H32           -0.5623    -3.7820    -0.8687 H       
  33 H33           -1.6439    -1.7518    -3.1164 H       
  34 H34           -2.0945    -0.2486    -2.2704 H       
  35 H35            3.2791    -1.5648    -2.9291 H       
  36 H36            2.5206    -3.1392    -3.2670 H       
  37 H37            2.1191    -1.7244    -4.2698 H       
  38 H38           -0.0959    -0.3679    -0.0070 H       
  39 H39           -1.8392    -0.0640     0.1851 H       
  40 H40           -1.0557    -1.3674     1.1102 H       
  41 H41           -4.8139    -4.6866    -2.1643 H       
  42 H42           -3.0625    -1.4168     1.0861 H       
  43 H43           -6.4075    -2.3680     1.6669 H       
  44 H44           -8.7284    -1.0296     4.8297 H       
  45 H45           -5.2326    -0.6739     7.2675 H       
@<TRIPOS>BOND
   1    1    7 2
   2    1   31 1
   3    2    3 1
   4    2    7 1
   5    2   32 1
   6    3    4 1
   7    3    9 1
   8    3   10 1
   9    4    5 1
  10    4   33 1
  11    4   34 1
  12    5    6 am
  13    5   16 2
  14    5   17 2
  15    6    7 1
  16    6    8 1
  17    8   35 1
  18    8   36 1
  19    8   37 1
  20    9   38 1
  21    9   39 1
  22    9   40 1
  23   10   11 ar
  24   10   15 ar
  25   11   12 ar
  26   11   18 1
  27   12   13 ar
  28   12   41 1
  29   13   14 ar
  30   13   19 1
  31   14   15 ar
  32   14   20 1
  33   15   42 1
  34   20   21 am
  35   20   43 1
  36   21   22 2
  37   21   23 1
  38   23   24 ar
  39   23   28 ar
  40   24   25 ar
  41   25   26 ar
  42   25   44 1
  43   26   27 ar
  44   26   29 1
  45   27   28 ar
  46   27   45 1
  47   28   30 1

#	End of record

