#	Name: ASD00069137
#	Creating user name:	WinNT
#	Creation time:	15. 06. 2019 18:29

#	Modifying user name:	WinNT
#	Modification time:	15. 06. 2019 18:29

#	Program:	/corina/corina34_cracker 3.40 0067  02.08.2006

@<TRIPOS>MOLECULE
ASD00069137
  59   62    0    0    0
SMALL
NO_CHARGES


@<TRIPOS>ATOM
   1 C1            -0.0149     1.1717    -0.5844 C.2     
   2 N2             0.0662    -0.0291    -0.0557 N.2     
   3 C3             1.3062    -0.5014    -0.2341 C.2     
   4 C4             2.0281     0.4475    -0.9032 C.2     
   5 N5             1.2007     1.4937    -1.1218 N.pl3   
   6 C6            -1.2166     2.0256    -0.6008 C.2     
   7 O7            -1.1750     3.1241    -1.1213 O.2     
   8 N8            -2.3612     1.5890    -0.0390 N.am    
   9 C9            -3.4673     2.4433     0.0511 C.ar    
  10 C10           -4.7586     1.9286    -0.0572 C.ar    
  11 C11           -5.8508     2.7812     0.0336 C.ar    
  12 C12           -5.6548     4.1372     0.2310 C.ar    
  13 C13           -4.3736     4.6459     0.3377 C.ar    
  14 C14           -3.2812     3.8029     0.2541 C.ar    
  15 F15           -7.1040     2.2876    -0.0711 F       
  16 N16           -4.9534     0.5560    -0.2573 N.3     
  17 C17           -5.7372    -0.0295     0.8378 C.3     
  18 C18           -5.8061    -1.5482     0.6623 C.3     
  19 C19           -6.4562    -1.8723    -0.6857 C.3     
  20 C20           -5.6480    -1.2108    -1.8054 C.3     
  21 C21           -5.5837     0.2982    -1.5583 C.3     
  22 C22           -6.4728    -3.3880    -0.8940 C.3     
  23 N23           -7.2023    -3.7045    -2.1291 N.3     
  24 C24            1.4867    -3.9386     1.2960 C.ar    
  25 C25            0.9752    -2.7128     0.8935 C.ar    
  26 C26            1.8089    -1.8226     0.2159 C.ar    
  27 C27            3.1317    -2.2089    -0.0287 C.ar    
  28 C28            3.5616    -3.4445     0.4044 C.ar    
  29 N29            2.7455    -4.2623     1.0430 N.ar    
  30 N30            0.6677    -4.8367     1.9794 N.am    
  31 C31            1.1240    -6.0679     2.2831 C.2     
  32 O32            2.2759    -6.3635     2.0451 O.2     
  33 C33            0.2029    -7.0774     2.9184 C.3     
  34 H34            3.0638     0.3750    -1.2005 H       
  35 H35            1.4272     2.3201    -1.5762 H       
  36 H36           -2.4190     0.6831     0.3028 H       
  37 H37           -6.5049     4.7995     0.3015 H       
  38 H38           -4.2259     5.7047     0.4913 H       
  39 H39           -2.2822     4.2036     0.3424 H       
  40 H40           -5.2618     0.2048     1.7903 H       
  41 H41           -6.7457     0.3838     0.8240 H       
  42 H42           -4.7988    -1.9638     0.6898 H       
  43 H43           -6.4010    -1.9809     1.4666 H       
  44 H44           -7.4771    -1.4907    -0.6989 H       
  45 H45           -4.6383    -1.6210    -1.8167 H       
  46 H46           -6.1300    -1.4023    -2.7641 H       
  47 H47           -6.5929     0.7100    -1.5609 H       
  48 H48           -4.9969     0.7705    -2.3462 H       
  49 H49           -5.4495    -3.7553    -0.9721 H       
  50 H50           -6.9666    -3.8657    -0.0478 H       
  51 H51           -6.8022    -3.2212    -2.9194 H       
  52 H52           -7.2273    -4.7004    -2.2892 H       
  53 H53           -0.0521    -2.4522     1.1013 H       
  54 H54            3.8070    -1.5471    -0.5507 H       
  55 H55            4.5812    -3.7484     0.2183 H       
  56 H56           -0.2304    -4.5753     2.2361 H       
  57 H57           -0.7836    -6.6341     3.0543 H       
  58 H58            0.1224    -7.9523     2.2733 H       
  59 H59            0.6037    -7.3758     3.8871 H       
@<TRIPOS>BOND
   1    1    2 2
   2    1    5 1
   3    1    6 1
   4    2    3 1
   5    3    4 2
   6    3   26 1
   7    4    5 1
   8    4   34 1
   9    5   35 1
  10    6    7 2
  11    6    8 am
  12    8    9 1
  13    8   36 1
  14    9   10 ar
  15    9   14 ar
  16   10   11 ar
  17   10   16 1
  18   11   12 ar
  19   11   15 1
  20   12   13 ar
  21   12   37 1
  22   13   14 ar
  23   13   38 1
  24   14   39 1
  25   16   17 1
  26   16   21 1
  27   17   18 1
  28   17   40 1
  29   17   41 1
  30   18   19 1
  31   18   42 1
  32   18   43 1
  33   19   20 1
  34   19   22 1
  35   19   44 1
  36   20   21 1
  37   20   45 1
  38   20   46 1
  39   21   47 1
  40   21   48 1
  41   22   23 1
  42   22   49 1
  43   22   50 1
  44   23   51 1
  45   23   52 1
  46   24   25 ar
  47   24   29 ar
  48   24   30 1
  49   25   26 ar
  50   25   53 1
  51   26   27 ar
  52   27   28 ar
  53   27   54 1
  54   28   29 ar
  55   28   55 1
  56   30   31 am
  57   30   56 1
  58   31   32 2
  59   31   33 1
  60   33   57 1
  61   33   58 1
  62   33   59 1

#	End of record

