#	Name: ASD05430285
#	Creating user name:	WinNT
#	Creation time:	15. 06. 2019 21:00

#	Modifying user name:	WinNT
#	Modification time:	15. 06. 2019 21:00

#	Program:	/corina/corina34_cracker 3.40 0067  02.08.2006

@<TRIPOS>MOLECULE
ASD05430285
  80   86    0    0    0
SMALL
NO_CHARGES


@<TRIPOS>ATOM
   1 C1             0.1587     1.2016    -0.9860 C.ar    
   2 C2             0.0190    -0.0126    -0.3145 C.ar    
   3 C3             1.0663    -0.5123     0.4492 C.ar    
   4 C4             2.2479     0.1895     0.5472 C.ar    
   5 C5             2.3953     1.4082    -0.1237 C.ar    
   6 C6             1.3414     1.9110    -0.8927 C.ar    
   7 C7             4.8914    -0.0031    -0.0920 C.3     
   8 C8             4.8285     1.5000     0.0681 C.2     
   9 C9             3.6566     2.1595    -0.0198 C.2     
  10 C10            6.3139    -0.4143    -0.4833 C.3     
  11 C11            7.1299     0.6329    -1.2496 C.3     
  12 N12            7.2013     1.8537    -0.4439 N.pl3   
  13 C13            6.0859     2.2191     0.3230 C.2     
  14 N14            6.1772     3.1313     1.2400 N.2     
  15 C15            8.1587     3.8915    -1.3489 C.ar    
  16 C16            9.1779     4.3482    -2.1641 C.ar    
  17 C17            6.9263     4.5173    -1.3650 C.ar    
  18 C18            6.7116     5.6006    -2.1962 C.ar    
  19 C19            7.7313     6.0588    -3.0127 C.ar    
  20 C20            8.9655     5.4310    -2.9958 C.ar    
  21 N21           -1.1811    -0.7302    -0.4099 N.pl3   
  22 C22           -1.4660    -1.9091     0.1763 C.2     
  23 N23           -2.3283    -0.3605    -1.1308 N.2     
  24 C24           -3.2105    -1.3088    -0.9500 C.2     
  25 N25           -2.6860    -2.2440    -0.1590 N.2     
  26 C26           -4.5979    -1.3371    -1.5377 C.3     
  27 Si27          10.3429     6.0481    -4.0964 Si      
  28 C28           11.3344     7.3368    -3.1870 C.3     
  29 C29           11.4517     4.6249    -4.5607 C.3     
  30 C30            9.6143     6.8002    -5.6433 C.ar    
  31 C31            8.3897     2.7066    -0.4469 C.3     
  32 C32            8.6528     3.1927     0.9831 C.3     
  33 N33            7.4095     3.7139     1.5565 N.pl3   
  34 F34            7.5224     7.1172    -3.8259 F       
  35 C35            9.2985     8.1456    -5.6751 C.ar    
  36 C36            8.7593     8.7022    -6.8198 C.ar    
  37 C37            8.5363     7.9134    -7.9329 C.ar    
  38 C38            8.8529     6.5681    -7.9014 C.ar    
  39 C39            9.3962     6.0125    -6.7582 C.ar    
  40 C40            7.0733    -1.3265     0.4823 C.3     
  41 C41            6.5467    -1.8838    -0.8417 C.3     
  42 C42           -0.6539     2.9343    -2.3972 C.3     
  43 O43           -0.8663     1.6849    -1.7369 O.3     
  44 H44            0.9538    -1.4530     0.9676 H       
  45 H45            3.0602    -0.2011     1.1422 H       
  46 H46            1.4511     2.8513    -1.4125 H       
  47 H47            4.6211    -0.4806     0.8498 H       
  48 H48            4.1956    -0.3152    -0.8708 H       
  49 H49            3.6429     3.2394    -0.0141 H       
  50 H50            8.1360     0.2534    -1.4284 H       
  51 H51            6.6443     0.8505    -2.2009 H       
  52 H52           10.1405     3.8587    -2.1504 H       
  53 H53            6.1309     4.1595    -0.7282 H       
  54 H54            5.7485     6.0892    -2.2089 H       
  55 H55           -0.8036    -2.4785     0.8115 H       
  56 H56           -4.5721    -1.8367    -2.5061 H       
  57 H57           -5.2655    -1.8784    -0.8673 H       
  58 H58           -4.9595    -0.3168    -1.6648 H       
  59 H59           11.7595     6.8979    -2.2843 H       
  60 H60           12.1381     7.6969    -3.8292 H       
  61 H61           10.6856     8.1695    -2.9153 H       
  62 H62           10.8716     3.8709    -5.0928 H       
  63 H63           12.2555     4.9850    -5.2029 H       
  64 H64           11.8769     4.1860    -3.6581 H       
  65 H65            9.2478     2.1362    -0.8023 H       
  66 H66            9.0126     2.3613     1.5892 H       
  67 H67            9.4040     3.9823     0.9662 H       
  68 H68            7.4409     4.4707     2.1623 H       
  69 H69            9.4728     8.7619    -4.8055 H       
  70 H70            8.5120     9.7532    -6.8444 H       
  71 H71            8.1144     8.3480    -8.8270 H       
  72 H72            8.6784     5.9518    -8.7710 H       
  73 H73            9.6435     4.9615    -6.7335 H       
  74 H74            8.1493    -1.1784     0.5736 H       
  75 H75            6.5613    -1.6304     1.3954 H       
  76 H76            5.6883    -2.5541    -0.7998 H       
  77 H77            7.2763    -2.1021    -1.6216 H       
  78 H78           -0.4445     3.7058    -1.6563 H       
  79 H79            0.1921     2.8459    -3.0787 H       
  80 H80           -1.5474     3.2042    -2.9603 H       
@<TRIPOS>BOND
   1    1    2 ar
   2    1    6 ar
   3    1   43 1
   4    2    3 ar
   5    2   21 1
   6    3    4 ar
   7    3   44 1
   8    4    5 ar
   9    4   45 1
  10    5    6 ar
  11    5    9 1
  12    6   46 1
  13    7    8 1
  14    7   10 1
  15    7   47 1
  16    7   48 1
  17    8    9 2
  18    8   13 1
  19    9   49 1
  20   10   11 1
  21   10   40 1
  22   10   41 1
  23   11   12 1
  24   11   50 1
  25   11   51 1
  26   12   13 1
  27   12   31 1
  28   13   14 2
  29   14   33 1
  30   15   16 ar
  31   15   17 ar
  32   15   31 1
  33   16   20 ar
  34   16   52 1
  35   17   18 ar
  36   17   53 1
  37   18   19 ar
  38   18   54 1
  39   19   20 ar
  40   19   34 1
  41   20   27 1
  42   21   22 1
  43   21   23 1
  44   22   25 2
  45   22   55 1
  46   23   24 2
  47   24   25 1
  48   24   26 1
  49   26   56 1
  50   26   57 1
  51   26   58 1
  52   27   28 1
  53   27   29 1
  54   27   30 1
  55   28   59 1
  56   28   60 1
  57   28   61 1
  58   29   62 1
  59   29   63 1
  60   29   64 1
  61   30   35 ar
  62   30   39 ar
  63   31   32 1
  64   31   65 1
  65   32   33 1
  66   32   66 1
  67   32   67 1
  68   33   68 1
  69   35   36 ar
  70   35   69 1
  71   36   37 ar
  72   36   70 1
  73   37   38 ar
  74   37   71 1
  75   38   39 ar
  76   38   72 1
  77   39   73 1
  78   40   41 1
  79   40   74 1
  80   40   75 1
  81   41   76 1
  82   41   77 1
  83   42   43 1
  84   42   78 1
  85   42   79 1
  86   42   80 1

#	End of record

