#	Name: ASD01140643
#	Creating user name:	WinNT
#	Creation time:	15. 06. 2019 19:01

#	Modifying user name:	WinNT
#	Modification time:	15. 06. 2019 19:01

#	Program:	/corina/corina34_cracker 3.40 0067  02.08.2006

@<TRIPOS>MOLECULE
ASD01140643
  44   46    0    0    0
SMALL
NO_CHARGES


@<TRIPOS>ATOM
   1 C1            -0.0044     1.3465    -0.1878 C.2     
   2 C2             0.0145    -0.0121    -0.1304 C.2     
   3 C3             1.2394    -0.6859     0.0216 C.2     
   4 C4             2.3934     0.0112     0.1104 C.2     
   5 C5             1.2081     2.0600    -0.0937 C.2     
   6 N6             1.4794     3.3569    -0.1195 N.2     
   7 N7             2.3873     1.3766     0.0541 N.pl3   
   8 C8             3.3880     2.3049     0.1175 C.2     
   9 C9             2.8041     3.5311     0.0078 C.2     
  10 C10            3.5116     4.8355     0.0260 C.ar    
  11 C11            4.7085     4.9915    -0.6701 C.ar    
  12 C12            5.3620     6.2070    -0.6501 C.ar    
  13 C13            4.8309     7.2691     0.0591 C.ar    
  14 C14            3.6432     7.1197     0.7522 C.ar    
  15 C15            2.9783     5.9103     0.7344 C.ar    
  16 C16            4.8600     2.0252     0.2788 C.3     
  17 N17            5.4505     1.7453    -1.0324 N.am    
  18 C18            6.7650     1.4656    -1.1337 C.2     
  19 C19            7.3724     1.1776    -2.4824 C.3     
  20 O20            7.4591     1.4457    -0.1393 O.2     
  21 F21            1.2623    -2.0355     0.0795 F       
  22 C22            5.5490     8.5939     0.0771 C.3     
  23 C23            8.8668     0.8936    -2.3187 C.3     
  24 C24            6.6862    -0.0422    -3.1008 C.3     
  25 F25            5.0996     9.3825    -0.9874 F       
  26 F26            5.2884     9.2492     1.2854 F       
  27 F27            6.9257     8.3798    -0.0498 F       
  28 H28           -0.9391     1.8738    -0.3088 H       
  29 H29           -0.9069    -0.5710    -0.2009 H       
  30 H30            3.3291    -0.5153     0.2274 H       
  31 H31            5.1243     4.1627    -1.2238 H       
  32 H32            6.2900     6.3289    -1.1890 H       
  33 H33            3.2331     7.9522     1.3046 H       
  34 H34            2.0488     5.7960     1.2722 H       
  35 H35            5.3488     2.8942     0.7193 H       
  36 H36            4.9966     1.1623     0.9305 H       
  37 H37            4.8953     1.7612    -1.8277 H       
  38 H38            7.2358     2.0405    -3.1342 H       
  39 H39            9.0034     0.0306    -1.6669 H       
  40 H40            9.3061     0.6853    -3.2942 H       
  41 H41            9.3556     1.7626    -1.8781 H       
  42 H42            7.1255    -0.2505    -4.0763 H       
  43 H43            6.8228    -0.9052    -2.4491 H       
  44 H44            5.6215     0.1601    -3.2175 H       
@<TRIPOS>BOND
   1    1    2 2
   2    1    5 1
   3    1   28 1
   4    2    3 1
   5    2   29 1
   6    3    4 2
   7    3   21 1
   8    4    7 1
   9    4   30 1
  10    5    7 1
  11    5    6 2
  12    6    9 1
  13    7    8 1
  14    8    9 2
  15    8   16 1
  16    9   10 1
  17   10   11 ar
  18   10   15 ar
  19   11   12 ar
  20   11   31 1
  21   12   13 ar
  22   12   32 1
  23   13   14 ar
  24   13   22 1
  25   14   15 ar
  26   14   33 1
  27   15   34 1
  28   16   17 1
  29   16   35 1
  30   16   36 1
  31   17   18 am
  32   17   37 1
  33   18   19 1
  34   18   20 2
  35   19   23 1
  36   19   24 1
  37   19   38 1
  38   22   25 1
  39   22   26 1
  40   22   27 1
  41   23   39 1
  42   23   40 1
  43   23   41 1
  44   24   42 1
  45   24   43 1
  46   24   44 1

#	End of record

