#	Name: ASD01911618
#	Creating user name:	WinNT
#	Creation time:	15. 06. 2019 19:58

#	Modifying user name:	WinNT
#	Modification time:	15. 06. 2019 19:58

#	Program:	/corina/corina34_cracker 3.40 0067  02.08.2006

@<TRIPOS>MOLECULE
ASD01911618
  44   47    0    0    0
SMALL
NO_CHARGES


@<TRIPOS>ATOM
   1 N1            -0.0213     1.2473     0.5020 N.am    
   2 C2             0.0021    -0.0041     0.0020 C.2     
   3 C3             1.2748    -0.7187    -0.1246 C.2     
   4 C4             1.4470    -2.0747    -0.0500 C.2     
   5 S5             2.8518     0.0159    -0.4072 S.3     
   6 C6             3.5963    -1.5802    -0.3909 C.2     
   7 N7             2.6740    -2.4890    -0.1928 N.2     
   8 C8             4.9923    -1.8438    -0.5711 C.1     
   9 C9             6.1367    -2.0599    -0.7188 C.1     
  10 C10            7.5327    -2.3234    -0.8990 C.ar    
  11 C11            8.0097    -3.6374    -0.8661 C.ar    
  12 C12            9.3552    -3.8832    -1.0409 C.ar    
  13 C13           10.2329    -2.8333    -1.2481 C.ar    
  14 C14            9.7684    -1.5301    -1.2820 C.ar    
  15 C15            8.4248    -1.2686    -1.1146 C.ar    
  16 O16           -1.0342    -0.5404    -0.3444 O.2     
  17 C17            1.1972     1.8556     1.0537 C.3     
  18 C18            0.9039     2.3423     2.4767 C.3     
  19 C19           -0.3145     3.2634     2.4564 C.3     
  20 C20           -1.5384     2.5140     1.9333 C.3     
  21 C21           -1.2642     2.0309     0.5001 C.3     
  22 C22           -0.5943     3.7838     3.8789 C.3     
  23 C23           -0.4762     5.3168     3.7179 C.3     
  24 C24           -0.5689     5.5243     2.2169 C.2     
  25 O25           -0.0488     4.4296     1.6313 O.3     
  26 O26           -1.0242     6.4913     1.6534 O.2     
  27 H27            0.6236    -2.7534     0.1160 H       
  28 H28            7.3261    -4.4576    -0.7038 H       
  29 H29            9.7252    -4.8975    -1.0157 H       
  30 H30           11.2857    -3.0321    -1.3836 H       
  31 H31           10.4595    -0.7160    -1.4437 H       
  32 H32            8.0638    -0.2511    -1.1412 H       
  33 H33            1.9965     1.1150     1.0781 H       
  34 H34            1.4972     2.7000     0.4332 H       
  35 H35            0.7015     1.4856     3.1195 H       
  36 H36            1.7663     2.8884     2.8592 H       
  37 H37           -1.7424     1.6574     2.5758 H       
  38 H38           -2.4002     3.1813     1.9320 H       
  39 H39           -1.1600     2.8907    -0.1617 H       
  40 H40           -2.0892     1.4042     0.1615 H       
  41 H41           -1.5981     3.5061     4.2005 H       
  42 H42            0.1530     3.4112     4.5796 H       
  43 H43           -1.2984     5.8204     4.2263 H       
  44 H44            0.4835     5.6695     4.0955 H       
@<TRIPOS>BOND
   1    1    2 am
   2    1   17 1
   3    1   21 1
   4    2    3 1
   5    2   16 2
   6    3    4 2
   7    3    5 1
   8    4    7 1
   9    4   27 1
  10    5    6 1
  11    6    7 2
  12    6    8 1
  13    8    9 3
  14    9   10 1
  15   10   11 ar
  16   10   15 ar
  17   11   12 ar
  18   11   28 1
  19   12   13 ar
  20   12   29 1
  21   13   14 ar
  22   13   30 1
  23   14   15 ar
  24   14   31 1
  25   15   32 1
  26   17   18 1
  27   17   33 1
  28   17   34 1
  29   18   19 1
  30   18   35 1
  31   18   36 1
  32   19   20 1
  33   19   22 1
  34   19   25 1
  35   20   21 1
  36   20   37 1
  37   20   38 1
  38   21   39 1
  39   21   40 1
  40   22   23 1
  41   22   41 1
  42   22   42 1
  43   23   24 1
  44   23   43 1
  45   23   44 1
  46   24   25 1
  47   24   26 2

#	End of record

