#	Name: ASD05313082
#	Creating user name:	WinNT
#	Creation time:	15. 06. 2019 20:58

#	Modifying user name:	WinNT
#	Modification time:	15. 06. 2019 20:58

#	Program:	/corina/corina34_cracker 3.40 0067  02.08.2006

@<TRIPOS>MOLECULE
ASD05313082
  42   45    0    0    0
SMALL
NO_CHARGES


@<TRIPOS>ATOM
   1 C1            -0.0660     0.7649     1.0817 C.2     
   2 C2             0.1275    -0.6622     0.6276 C.3     
   3 N3             0.9286     1.6865     1.1119 N.pl3   
   4 N4             1.4643    -0.7395     0.0087 N.am    
   5 C5             2.5805    -0.0595     0.6832 C.3     
   6 C6             2.3128     1.4501     0.7055 C.3     
   7 N7            -0.9057     2.5687     1.8062 N.2     
   8 N8            -1.1512     1.3393     1.5069 N.2     
   9 C9             0.3654     2.8335     1.5824 C.2     
  10 C10            1.0494     4.1265     1.8026 C.ar    
  11 C11            0.3290     5.2157     2.2930 C.ar    
  12 C12            0.9831     6.4184     2.4942 C.ar    
  13 C13            2.3371     6.4940     2.1985 C.ar    
  14 C14            2.9898     5.3747     1.7150 C.ar    
  15 N15            2.3455     4.2398     1.5371 N.ar    
  16 C16            1.6574    -1.4143    -1.1419 C.2     
  17 O17            2.7427    -1.3846    -1.6892 O.2     
  18 C18            0.5519    -2.1890    -1.7372 C.ar    
  19 C19            0.3189    -2.1376    -3.1185 C.ar    
  20 C20           -0.7227    -2.8702    -3.6673 C.ar    
  21 C21           -1.5260    -3.6465    -2.8554 C.ar    
  22 C22           -1.2991    -3.6999    -1.4901 C.ar    
  23 C23           -0.2650    -2.9824    -0.9285 C.ar    
  24 O24            1.1086    -1.3743    -3.9147 O.3     
  25 C25            0.8111    -1.3714    -5.3124 C.3     
  26 H26            0.0743    -1.3353     1.4833 H       
  27 H27           -0.6367    -0.9269    -0.1032 H       
  28 H28            2.6677    -0.4287     1.7051 H       
  29 H29            3.5067    -0.2572     0.1437 H       
  30 H30            2.4758     1.8632    -0.2900 H       
  31 H31            2.9876     1.9295     1.4147 H       
  32 H32           -0.7243     5.1218     2.5123 H       
  33 H33            0.4518     7.2793     2.8725 H       
  34 H34            2.8760     7.4186     2.3442 H       
  35 H35            4.0433     5.4309     1.4838 H       
  36 H36           -0.9061    -2.8334    -4.7309 H       
  37 H37           -2.3362    -4.2150    -3.2875 H       
  38 H38           -1.9327    -4.3099    -0.8633 H       
  39 H39           -0.0891    -3.0302     0.1361 H       
  40 H40            0.8937    -2.3855    -5.7035 H       
  41 H41           -0.2034    -1.0039    -5.4671 H       
  42 H42            1.5158    -0.7228    -5.8325 H       
@<TRIPOS>BOND
   1    1    2 1
   2    1    3 1
   3    1    8 2
   4    2    4 1
   5    2   26 1
   6    2   27 1
   7    3    6 1
   8    3    9 1
   9    4    5 1
  10    4   16 am
  11    5    6 1
  12    5   28 1
  13    5   29 1
  14    6   30 1
  15    6   31 1
  16    7    8 1
  17    7    9 2
  18    9   10 1
  19   10   11 ar
  20   10   15 ar
  21   11   12 ar
  22   11   32 1
  23   12   13 ar
  24   12   33 1
  25   13   14 ar
  26   13   34 1
  27   14   15 ar
  28   14   35 1
  29   16   17 2
  30   16   18 1
  31   18   19 ar
  32   18   23 ar
  33   19   20 ar
  34   19   24 1
  35   20   21 ar
  36   20   36 1
  37   21   22 ar
  38   21   37 1
  39   22   23 ar
  40   22   38 1
  41   23   39 1
  42   24   25 1
  43   25   40 1
  44   25   41 1
  45   25   42 1

#	End of record

