#	Name: ASD01914924
#	Creating user name:	WinNT
#	Creation time:	15. 06. 2019 20:04

#	Modifying user name:	WinNT
#	Modification time:	15. 06. 2019 20:04

#	Program:	/corina/corina34_cracker 3.40 0067  02.08.2006

@<TRIPOS>MOLECULE
ASD01914924
  59   64    0    0    0
SMALL
NO_CHARGES


@<TRIPOS>ATOM
   1 C1             0.0212     1.6850     0.7125 C.2     
   2 N2            -0.0769     0.4021     0.9922 N.2     
   3 C3             1.3018     1.9255     0.1870 C.2     
   4 C4             1.9713     0.7373     0.1611 C.2     
   5 N5             1.1332    -0.2178     0.6560 N.pl3   
   6 C6            -1.0416     2.7019     0.9122 C.ar    
   7 C7            -2.2759     2.3288     1.4397 C.ar    
   8 C8            -3.2605     3.2785     1.6233 C.ar    
   9 C9            -3.0237     4.5984     1.2842 C.ar    
  10 C10           -1.8001     4.9742     0.7602 C.ar    
  11 C11           -0.8062     4.0338     0.5782 C.ar    
  12 C12            3.3554     0.5235    -0.3172 C.ar    
  13 C13            4.0958    -0.5647     0.1448 C.ar    
  14 C14            5.3858    -0.7585    -0.3049 C.ar    
  15 C15            5.9451     0.1237    -1.2119 C.ar    
  16 C16            5.2162     1.2051    -1.6735 C.ar    
  17 C17            3.9230     1.4063    -1.2361 C.ar    
  18 C18            1.4439    -1.6413     0.8096 C.3     
  19 C19            1.9205    -1.9026     2.2151 C.2     
  20 N20            2.2657    -3.1508     2.5885 N.am    
  21 O21            1.9934    -0.9898     3.0103 O.2     
  22 C22            2.1888    -4.2793     1.6489 C.3     
  23 C23            1.6008    -5.4668     2.3611 C.2     
  24 N24            1.4568    -5.5218     3.6860 N.am    
  25 C25            1.7585    -4.4259     4.5967 C.3     
  26 C26            2.7411    -3.4387     3.9523 C.3     
  27 C27            0.9845    -6.7097     4.2369 C.ar    
  28 C28            0.6934    -6.7804     5.6033 C.ar    
  29 N29            0.8055    -7.7710     3.4676 N.ar    
  30 C30            0.3583    -8.9192     3.9496 C.ar    
  31 C31            0.0534    -9.0719     5.2834 C.ar    
  32 C32            0.2167    -7.9877     6.1439 C.ar    
  33 O33            1.2409    -6.4179     1.7002 O.2     
  34 O34            0.0219    -7.7897     7.4585 O.3     
  35 C35            0.3383    -6.5285     7.8055 C.2     
  36 C36            0.7571    -5.8459     6.7302 C.2     
  37 H37            1.6872     2.8804    -0.1386 H       
  38 H38           -2.4620     1.2984     1.7041 H       
  39 H39           -4.2177     2.9903     2.0321 H       
  40 H40           -3.7972     5.3381     1.4288 H       
  41 H41           -1.6204     6.0061     0.4971 H       
  42 H42            0.1490     4.3283     0.1693 H       
  43 H43            3.6604    -1.2539     0.8532 H       
  44 H44            5.9602    -1.6005     0.0523 H       
  45 H45            6.9552    -0.0323    -1.5609 H       
  46 H46            5.6585     1.8907    -2.3810 H       
  47 H47            3.3548     2.2507    -1.5974 H       
  48 H48            0.5489    -2.2317     0.6137 H       
  49 H49            2.2254    -1.9208     0.1031 H       
  50 H50            1.5543    -4.0090     0.8048 H       
  51 H51            3.1887    -4.5259     1.2920 H       
  52 H52            0.8353    -3.9038     4.8481 H       
  53 H53            2.2019    -4.8281     5.5076 H       
  54 H54            3.7361    -3.8821     3.9144 H       
  55 H55            2.7704    -2.5169     4.5333 H       
  56 H56            0.2290    -9.7569     3.2803 H       
  57 H57           -0.3108   -10.0175     5.6571 H       
  58 H58            0.2670    -6.1255     8.8049 H       
  59 H59            1.0774    -4.8149     6.7006 H       
@<TRIPOS>BOND
   1    1    2 2
   2    1    3 1
   3    1    6 1
   4    2    5 1
   5    3    4 2
   6    3   37 1
   7    4    5 1
   8    4   12 1
   9    5   18 1
  10    6    7 ar
  11    6   11 ar
  12    7    8 ar
  13    7   38 1
  14    8    9 ar
  15    8   39 1
  16    9   10 ar
  17    9   40 1
  18   10   11 ar
  19   10   41 1
  20   11   42 1
  21   12   13 ar
  22   12   17 ar
  23   13   14 ar
  24   13   43 1
  25   14   15 ar
  26   14   44 1
  27   15   16 ar
  28   15   45 1
  29   16   17 ar
  30   16   46 1
  31   17   47 1
  32   18   19 1
  33   18   48 1
  34   18   49 1
  35   19   20 am
  36   19   21 2
  37   20   22 1
  38   20   26 1
  39   22   23 1
  40   22   50 1
  41   22   51 1
  42   23   24 am
  43   23   33 2
  44   24   25 1
  45   24   27 1
  46   25   26 1
  47   25   52 1
  48   25   53 1
  49   26   54 1
  50   26   55 1
  51   27   28 ar
  52   27   29 ar
  53   28   32 ar
  54   28   36 1
  55   29   30 ar
  56   30   31 ar
  57   30   56 1
  58   31   32 ar
  59   31   57 1
  60   32   34 1
  61   34   35 1
  62   35   36 2
  63   35   58 1
  64   36   59 1

#	End of record

