#	Name: ASD08710063
#	Creating user name:	WinNT
#	Creation time:	15. 06. 2019 21:19

#	Modifying user name:	WinNT
#	Modification time:	15. 06. 2019 21:19

#	Program:	/corina/corina34_cracker 3.40 0067  02.08.2006

@<TRIPOS>MOLECULE
ASD08710063
  56   57    0    0    0
SMALL
NO_CHARGES


@<TRIPOS>ATOM
   1 C1            -0.0748     1.1507    -0.7179 C.ar    
   2 C2             0.2609     0.0855    -1.5520 C.ar    
   3 C3             1.5457    -0.3860    -1.5549 C.ar    
   4 C4             2.4853     0.2258    -0.7108 C.ar    
   5 C5             2.0792     1.2882     0.0981 C.ar    
   6 N6             0.8325     1.7111     0.0703 N.ar    
   7 N7            -1.3722     1.6341    -0.7166 N.pl3   
   8 C8             3.8823    -0.2476    -0.6785 C.2     
   9 O9             4.1201    -1.4301    -0.5252 O.2     
  10 N10            4.8949     0.6307    -0.8190 N.am    
  11 C11            6.2904     0.1927    -0.6749 C.3     
  12 C12            7.0592     0.5803    -1.9441 C.3     
  13 N13            6.7877     1.9930    -2.2447 N.am    
  14 C14            5.3923     2.4310    -2.3888 C.3     
  15 C15            4.6236     2.0423    -1.1251 C.3     
  16 S16            8.0319     3.0721    -2.4173 S.o2    
  17 O17            7.4891     4.3571    -2.1461 O.2     
  18 O18            9.1358     2.5289    -1.7063 O.2     
  19 C19            8.4884     3.0739    -4.1191 C.ar    
  20 C20            7.8788     3.9503    -4.9974 C.ar    
  21 C21            8.2369     3.9516    -6.3325 C.ar    
  22 C22            9.2050     3.0770    -6.7894 C.ar    
  23 C23            9.8153     2.2013    -5.9110 C.ar    
  24 C24            9.4602     2.2029    -4.5750 C.ar    
  25 C25            9.5947     3.0778    -8.2451 C.3     
  26 F26           10.6464     3.9782    -8.4458 F       
  27 F27           10.0029     1.7931    -8.6193 F       
  28 F28            8.4965     3.4629    -9.0216 F       
  29 C29            6.3356    -1.3254    -0.4905 C.3     
  30 C30            1.9424    -1.5363    -2.4440 C.3     
  31 C31           -2.3812     1.0264    -1.5878 C.3     
  32 H32           -0.4860    -0.3638    -2.1898 H       
  33 H33            2.7930     1.7671     0.7519 H       
  34 H34           -1.6131     2.3751    -0.1388 H       
  35 H35            6.7400     0.6822     0.1890 H       
  36 H36            8.1279     0.4396    -1.7817 H       
  37 H37            6.7283    -0.0410    -2.7763 H       
  38 H38            5.3600     3.5125    -2.5202 H       
  39 H39            4.9426     1.9415    -3.2527 H       
  40 H40            3.5554     2.1819    -1.2911 H       
  41 H41            4.9519     2.6665    -0.2940 H       
  42 H42            7.1224     4.6336    -4.6405 H       
  43 H43            7.7601     4.6358    -7.0188 H       
  44 H44           10.5714     1.5177    -6.2679 H       
  45 H45            9.9397     1.5213    -3.8880 H       
  46 H46            5.8385    -1.8086    -1.3317 H       
  47 H47            7.3736    -1.6550    -0.4438 H       
  48 H48            5.8270    -1.5943     0.4353 H       
  49 H49            2.3728    -1.1499    -3.3678 H       
  50 H50            2.6788    -2.1548    -1.9309 H       
  51 H51            1.0625    -2.1363    -2.6762 H       
  52 H52           -3.3348     1.5361    -1.4498 H       
  53 H53           -2.0668     1.1189    -2.6273 H       
  54 H54           -2.4927    -0.0278    -1.3343 H       
  55 Cl55          15.6464     9.6358     5.7519 Cl      
  56 H56           15.6464    11.0058     5.7519 H       
@<TRIPOS>BOND
   1    1    2 ar
   2    1    6 ar
   3    1    7 1
   4    2    3 ar
   5    2   32 1
   6    3    4 ar
   7    3   30 1
   8    4    5 ar
   9    4    8 1
  10    5    6 ar
  11    5   33 1
  12    7   31 1
  13    7   34 1
  14    8    9 2
  15    8   10 am
  16   10   11 1
  17   10   15 1
  18   11   12 1
  19   11   29 1
  20   11   35 1
  21   12   13 1
  22   12   36 1
  23   12   37 1
  24   13   14 1
  25   13   16 am
  26   14   15 1
  27   14   38 1
  28   14   39 1
  29   15   40 1
  30   15   41 1
  31   16   17 2
  32   16   18 2
  33   16   19 1
  34   19   20 ar
  35   19   24 ar
  36   20   21 ar
  37   20   42 1
  38   21   22 ar
  39   21   43 1
  40   22   23 ar
  41   22   25 1
  42   23   24 ar
  43   23   44 1
  44   24   45 1
  45   25   26 1
  46   25   27 1
  47   25   28 1
  48   29   46 1
  49   29   47 1
  50   29   48 1
  51   30   49 1
  52   30   50 1
  53   30   51 1
  54   31   52 1
  55   31   53 1
  56   31   54 1
  57   55   56 1

#	End of record

