#	Name: ASD01884011
#	Creating user name:	WinNT
#	Creation time:	15. 06. 2019 19:47

#	Modifying user name:	WinNT
#	Modification time:	15. 06. 2019 19:47

#	Program:	/corina/corina34_cracker 3.40 0067  02.08.2006

@<TRIPOS>MOLECULE
ASD01884011
  36   39    0    0    0
SMALL
NO_CHARGES


@<TRIPOS>ATOM
   1 C1             0.1361     1.6472    -0.0759 C.3     
   2 C2             0.3240     0.1288    -0.2656 C.3     
   3 C3             1.7813    -0.3184    -0.1687 C.2     
   4 C4             2.6078     0.4893     0.7625 C.ar    
   5 C5             3.6350    -0.0787     1.5045 C.ar    
   6 C6             4.3690     0.7141     2.3657 C.ar    
   7 C7             4.0801     2.0630     2.4865 C.ar    
   8 C8             3.0620     2.6364     1.7482 C.ar    
   9 C9             2.3185     1.8589     0.8762 C.ar    
  10 O10            1.3334     2.4071     0.1210 O.3     
  11 C11           -0.2887     0.6788     1.0265 C.3     
  12 C12           -0.9420     2.3253    -0.8815 C.2     
  13 O13           -1.3104     1.8409    -1.9307 O.2     
  14 N14           -1.4968     3.4700    -0.4362 N.am    
  15 N15            2.2551    -1.3174    -0.8412 N.2     
  16 O16            1.4116    -2.0476    -1.7132 O.3     
  17 C17           -2.4272     4.1516    -1.2292 C.ar    
  18 C18           -3.3183     3.4408    -2.0223 C.ar    
  19 C19           -4.2357     4.1157    -2.8035 C.ar    
  20 C20           -4.2670     5.4992    -2.7967 C.ar    
  21 C21           -3.3798     6.2099    -2.0076 C.ar    
  22 C22           -2.4646     5.5397    -1.2199 C.ar    
  23 Cl23          -5.4210     6.3446    -3.7803 Cl      
  24 H24           -0.3035    -0.4013    -0.9821 H       
  25 H25            3.8581    -1.1312     1.4095 H       
  26 H26            5.1703     0.2808     2.9459 H       
  27 H27            4.6571     2.6739     3.1650 H       
  28 H28            2.8466     3.6897     1.8512 H       
  29 H29            0.3235     0.6435     1.9276 H       
  30 H30           -1.3575     0.5289     1.1793 H       
  31 H31           -1.2513     3.8215     0.4340 H       
  32 H32            1.8546    -2.7748    -2.1714 H       
  33 H33           -3.2938     2.3611    -2.0285 H       
  34 H34           -4.9289     3.5633    -3.4205 H       
  35 H35           -3.4061     7.2896    -2.0044 H       
  36 H36           -1.7754     6.0948    -0.6008 H       
@<TRIPOS>BOND
   1    1    2 1
   2    1   10 1
   3    1   11 1
   4    1   12 1
   5    2    3 1
   6    2   11 1
   7    2   24 1
   8    3    4 1
   9    3   15 2
  10    4    5 ar
  11    4    9 ar
  12    5    6 ar
  13    5   25 1
  14    6    7 ar
  15    6   26 1
  16    7    8 ar
  17    7   27 1
  18    8    9 ar
  19    8   28 1
  20    9   10 1
  21   11   29 1
  22   11   30 1
  23   12   13 2
  24   12   14 am
  25   14   17 1
  26   14   31 1
  27   15   16 1
  28   16   32 1
  29   17   18 ar
  30   17   22 ar
  31   18   19 ar
  32   18   33 1
  33   19   20 ar
  34   19   34 1
  35   20   21 ar
  36   20   23 1
  37   21   22 ar
  38   21   35 1
  39   22   36 1

#	End of record

