#	Name: ASD08150585
#	Creating user name:	WinNT
#	Creation time:	15. 06. 2019 21:16

#	Modifying user name:	WinNT
#	Modification time:	15. 06. 2019 21:16

#	Program:	/corina/corina34_cracker 3.40 0067  02.08.2006

@<TRIPOS>MOLECULE
ASD08150585
  54   59    0    0    0
SMALL
NO_CHARGES


@<TRIPOS>ATOM
   1 N1            -0.0162     1.3429     0.0094 N.am    
   2 C2             0.0037     0.0004    -0.0996 C.2     
   3 C3             1.2234    -0.7063    -0.1174 C.2     
   4 C4             2.4013    -0.0382    -0.0243 C.2     
   5 C5             2.3841     1.3743     0.0906 C.ar    
   6 C6             3.5771     2.1154     0.1897 C.ar    
   7 N7             3.5584     3.4185     0.2955 N.ar    
   8 C8             2.4153     4.1205     0.3155 C.ar    
   9 C9             1.1669     3.4573     0.2205 C.ar    
  10 C10            1.1526     2.0473     0.1053 C.ar    
  11 C11            0.0410     5.5776     0.3590 C.ar    
  12 C12            1.2801     6.2269     0.4519 C.ar    
  13 C13            2.4417     5.5201     0.4312 C.ar    
  14 O14           -1.0473    -0.6119    -0.1836 O.2     
  15 C15           -1.2408     2.0222     0.0189 C.ar    
  16 C16           -1.8064     2.4525    -1.1740 C.ar    
  17 C17           -3.0145     3.1219    -1.1624 C.ar    
  18 C18           -3.6616     3.3639     0.0376 C.ar    
  19 C19           -3.0989     2.9359     1.2287 C.ar    
  20 C20           -1.8941     2.2614     1.2211 C.ar    
  21 F21           -4.8432     4.0188     0.0467 F       
  22 C22           -0.0186     4.1980     0.2433 C.ar    
  23 C23           -1.2118     6.3711     0.3838 C.2     
  24 C24           -1.4925     7.2440    -0.6242 C.2     
  25 C25           -2.1732     6.2167     1.5034 C.2     
  26 C26           -2.9678     7.2470     1.8509 C.2     
  27 C27           -2.7975     8.4769     1.0275 C.3     
  28 C28           -2.7729     7.9859    -0.4603 C.3     
  29 N29           -3.9027     9.4231     0.8972 N.pl3   
  30 N30           -3.6456    10.0537    -0.3513 N.2     
  31 C31           -2.9884     9.2825    -1.1688 C.2     
  32 C32           -2.5291     9.6336    -2.5605 C.3     
  33 C33           -1.1024     2.1898    -2.4802 C.3     
  34 F34           -1.8612     2.7134    -3.5325 F       
  35 F35            0.1557     2.8013    -2.4631 F       
  36 F36           -0.9482     0.8107    -2.6577 F       
  37 H37            1.2206    -1.7827    -0.2051 H       
  38 H38            3.3382    -0.5754    -0.0372 H       
  39 H39            4.5250     1.5981     0.1784 H       
  40 H40            1.3126     7.3027     0.5408 H       
  41 H41            3.3874     6.0364     0.5044 H       
  42 H42           -3.4546     3.4570    -2.0900 H       
  43 H43           -3.6050     3.1260     2.1636 H       
  44 H44           -1.4557     1.9279     2.1500 H       
  45 H45           -0.9736     3.6989     0.1709 H       
  46 H46           -0.8395     7.3861    -1.4727 H       
  47 H47           -2.2358     5.2804     2.0381 H       
  48 H48           -3.6753     7.1862     2.6646 H       
  49 H49           -1.8706     8.9882     1.2872 H       
  50 H50           -3.6140     7.3171    -0.6430 H       
  51 H51           -4.6347     9.5828     1.5132 H       
  52 H52           -2.8324    10.6536    -2.7967 H       
  53 H53           -1.4433     9.5555    -2.6153 H       
  54 H54           -2.9794     8.9457    -3.2761 H       
@<TRIPOS>BOND
   1    1    2 am
   2    1   10 1
   3    1   15 1
   4    2    3 1
   5    2   14 2
   6    3    4 2
   7    3   37 1
   8    4    5 1
   9    4   38 1
  10    5    6 ar
  11    5   10 ar
  12    6    7 ar
  13    6   39 1
  14    7    8 ar
  15    8    9 ar
  16    8   13 ar
  17    9   10 ar
  18    9   22 ar
  19   11   12 ar
  20   11   23 1
  21   11   22 ar
  22   12   13 ar
  23   12   40 1
  24   13   41 1
  25   15   16 ar
  26   15   20 ar
  27   16   17 ar
  28   16   33 1
  29   17   18 ar
  30   17   42 1
  31   18   19 ar
  32   18   21 1
  33   19   20 ar
  34   19   43 1
  35   20   44 1
  36   22   45 1
  37   23   24 2
  38   23   25 1
  39   24   28 1
  40   24   46 1
  41   25   26 2
  42   25   47 1
  43   26   27 1
  44   26   48 1
  45   27   28 1
  46   27   29 1
  47   27   49 1
  48   28   31 1
  49   28   50 1
  50   29   30 1
  51   29   51 1
  52   30   31 2
  53   31   32 1
  54   32   52 1
  55   32   53 1
  56   32   54 1
  57   33   34 1
  58   33   35 1
  59   33   36 1

#	End of record

