#	Name: ASD05860008
#	Creating user name:	WinNT
#	Creation time:	15. 06. 2019 21:04

#	Modifying user name:	WinNT
#	Modification time:	15. 06. 2019 21:04

#	Program:	/corina/corina34_cracker 3.40 0067  02.08.2006

@<TRIPOS>MOLECULE
ASD05860008
 119  120    0    0    0
SMALL
NO_CHARGES


@<TRIPOS>ATOM
   1 C1            -0.1723     0.9192     3.5005 C.3     
   2 C2            -0.2870    -0.5016     4.0564 C.3     
   3 C3            -1.4144    -1.2423     3.3344 C.3     
   4 N4            -1.5242    -2.6027     3.8667 N.am    
   5 C5            -2.4560    -3.4446     3.3774 C.2     
   6 O6            -3.2036    -3.0760     2.4964 O.2     
   7 C7            -2.5689    -4.8441     3.9250 C.3     
   8 C8            -1.2489    -5.5858     3.7053 C.3     
   9 C9            -1.3191    -6.9411     4.3606 C.2     
  10 C10           -0.8816    -7.2575     5.5896 C.2     
  11 N11           -1.1152    -8.5820     5.8412 N.pl3   
  12 C12           -1.7241    -9.1650     4.7525 C.ar    
  13 C13           -1.8835    -8.1616     3.7795 C.ar    
  14 C14           -2.4854    -8.4661     2.5570 C.ar    
  15 C15           -2.9199    -9.7382     2.3131 C.ar    
  16 C16           -2.7682   -10.7312     3.2714 C.ar    
  17 C17           -2.1698   -10.4546     4.4810 C.ar    
  18 N18           -3.6484    -5.5533     3.2336 N.am    
  19 C19           -4.9208    -5.4229     3.6586 C.2     
  20 O20           -5.1621    -4.7920     4.6659 O.2     
  21 C21           -6.0436    -6.0612     2.8822 C.3     
  22 C22           -6.5183    -5.1012     1.7895 C.3     
  23 C23           -5.3968    -4.8952     0.7693 C.3     
  24 C24           -7.7433    -5.6918     1.0885 C.3     
  25 N25           -7.1561    -6.3587     3.7878 N.am    
  26 C26           -8.0281    -7.3405     3.4842 C.2     
  27 O27           -7.8427    -8.0358     2.5080 O.2     
  28 C28           -9.2337    -7.5742     4.3577 C.3     
  29 C29           -8.8727    -8.5579     5.4726 C.3     
  30 C30           -7.7749    -7.9535     6.3504 C.3     
  31 C31          -10.1112    -8.8387     6.3258 C.3     
  32 N32          -10.3220    -8.1299     3.5496 N.am    
  33 C33          -11.6021    -7.9616     3.9361 C.2     
  34 O34          -11.8502    -7.4284     4.9968 O.2     
  35 C35          -12.7252    -8.4358     3.0502 C.3     
  36 C36          -13.0633    -7.3479     2.0289 C.3     
  37 C37          -13.3871    -6.0440     2.7609 C.3     
  38 C38          -11.8658    -7.1286     1.1021 C.3     
  39 N39          -13.9061    -8.7206     3.8691 N.am    
  40 C40          -14.8322    -9.5979     3.4341 C.2     
  41 O41          -14.6880   -10.1515     2.3647 O.2     
  42 C42          -16.0469    -9.8909     4.2765 C.3     
  43 N43          -17.0990   -10.4642     3.4335 N.am    
  44 C44          -16.8777   -11.6160     2.7695 C.2     
  45 O45          -15.8076   -12.1778     2.8698 O.2     
  46 C46          -17.9600   -12.2057     1.9023 C.3     
  47 C47          -18.9680   -12.9501     2.7803 C.3     
  48 O48          -20.0544   -13.4095     1.9736 O.3     
  49 N49          -17.3618   -13.1423     0.9417 N.3     
  50 C50          -15.6760   -10.8868     5.3772 C.3     
  51 C51          -16.8743   -11.0891     6.3068 C.3     
  52 C52          -16.5034   -12.0850     7.4076 C.3     
  53 N53          -17.6507   -12.2786     8.2977 N.pl3   
  54 C54          -17.5533   -13.1359     9.3681 C.2     
  55 N55          -16.4401   -13.7763     9.5910 N.2     
  56 N56          -18.6300   -13.3176    10.2035 N.pl3   
  57 H57            0.6309     1.4469     4.0149 H       
  58 H58            0.0467     0.8754     2.4336 H       
  59 H59           -1.1128     1.4476     3.6570 H       
  60 H60            0.6534    -1.0300     3.9000 H       
  61 H61           -0.5060    -0.4577     5.1233 H       
  62 H62           -2.3548    -0.7139     3.4909 H       
  63 H63           -1.1954    -1.2861     2.2675 H       
  64 H64           -0.9263    -2.8976     4.5713 H       
  65 H65           -2.7879    -4.8002     4.9918 H       
  66 H66           -1.0741    -5.7076     2.6364 H       
  67 H67           -0.4324    -5.0120     4.1439 H       
  68 H68           -0.4141    -6.5687     6.2776 H       
  69 H69           -0.8857    -9.0419     6.6638 H       
  70 H70           -2.6075    -7.6986     1.8070 H       
  71 H71           -3.3855    -9.9732     1.3673 H       
  72 H72           -3.1170   -11.7320     3.0641 H       
  73 H73           -2.0575   -11.2336     5.2206 H       
  74 H74           -3.4474    -6.1167     2.4700 H       
  75 H75           -5.6900    -6.9855     2.4252 H       
  76 H76           -6.7826    -4.1432     2.2372 H       
  77 H77           -5.1755    -5.8419     0.2765 H       
  78 H78           -5.7122    -4.1634     0.0255 H       
  79 H79           -4.5038    -4.5334     1.2790 H       
  80 H80           -8.5422    -5.8386     1.8153 H       
  81 H81           -8.0814    -5.0079     0.3100 H       
  82 H82           -7.4789    -6.6498     0.6407 H       
  83 H83           -7.2651    -5.8491     4.6059 H       
  84 H84           -9.5531    -6.6290     4.7966 H       
  85 H85           -8.5151    -9.4894     5.0335 H       
  86 H86           -8.1469    -7.0443     6.8227 H       
  87 H87           -7.4881    -8.6711     7.1190 H       
  88 H88           -6.9078    -7.7145     5.7347 H       
  89 H89          -10.8932    -9.2693     5.7005 H       
  90 H90           -9.8540    -9.5395     7.1201 H       
  91 H91          -10.4687    -7.9073     6.7649 H       
  92 H92          -10.1212    -8.6191     2.7364 H       
  93 H93          -12.4182    -9.3418     2.5278 H       
  94 H94          -13.9265    -7.6580     1.4400 H       
  95 H95          -12.5239    -5.7339     3.3498 H       
  96 H96          -13.6279    -5.2690     2.0332 H       
  97 H97          -14.2402    -6.2002     3.4211 H       
  98 H98          -11.5657    -8.0809     0.6647 H       
  99 H99          -12.1431    -6.4354     0.3080 H       
 100 H100         -11.0355    -6.7134     1.6733 H       
 101 H101         -14.0214    -8.2779     4.7245 H       
 102 H102         -16.4069    -8.9669     4.7288 H       
 103 H103         -17.9549   -10.0149     3.3533 H       
 104 H104         -18.4686   -11.4070     1.3625 H       
 105 H105         -18.4793   -13.8029     3.2514 H       
 106 H106         -19.3461   -12.2772     3.5499 H       
 107 H107         -20.7332   -13.8914     2.4656 H       
 108 H108         -16.7403   -12.6625     0.3079 H       
 109 H109         -16.8840   -13.8927     1.4178 H       
 110 H110         -15.4007   -11.8404     4.9267 H       
 111 H111         -14.8335   -10.4986     5.9496 H       
 112 H112         -17.1496   -10.1355     6.7574 H       
 113 H113         -17.7167   -11.4773     5.7345 H       
 114 H114         -16.2280   -13.0385     6.9571 H       
 115 H115         -15.6609   -11.6968     7.9799 H       
 116 H116         -18.4791   -11.8021     8.1318 H       
 117 H117         -16.3714   -14.3811    10.3462 H       
 118 H118         -19.4584   -12.8410    10.0376 H       
 119 H119         -18.5612   -13.9224    10.9587 H       
@<TRIPOS>BOND
   1    1    2 1
   2    1   57 1
   3    1   58 1
   4    1   59 1
   5    2    3 1
   6    2   60 1
   7    2   61 1
   8    3    4 1
   9    3   62 1
  10    3   63 1
  11    4    5 am
  12    4   64 1
  13    5    6 2
  14    5    7 1
  15    7    8 1
  16    7   18 1
  17    7   65 1
  18    8    9 1
  19    8   66 1
  20    8   67 1
  21    9   10 2
  22    9   13 1
  23   10   11 1
  24   10   68 1
  25   11   12 1
  26   11   69 1
  27   12   13 ar
  28   12   17 ar
  29   13   14 ar
  30   14   15 ar
  31   14   70 1
  32   15   16 ar
  33   15   71 1
  34   16   17 ar
  35   16   72 1
  36   17   73 1
  37   18   19 am
  38   18   74 1
  39   19   20 2
  40   19   21 1
  41   21   22 1
  42   21   25 1
  43   21   75 1
  44   22   23 1
  45   22   24 1
  46   22   76 1
  47   23   77 1
  48   23   78 1
  49   23   79 1
  50   24   80 1
  51   24   81 1
  52   24   82 1
  53   25   26 am
  54   25   83 1
  55   26   27 2
  56   26   28 1
  57   28   29 1
  58   28   32 1
  59   28   84 1
  60   29   30 1
  61   29   31 1
  62   29   85 1
  63   30   86 1
  64   30   87 1
  65   30   88 1
  66   31   89 1
  67   31   90 1
  68   31   91 1
  69   32   33 am
  70   32   92 1
  71   33   34 2
  72   33   35 1
  73   35   36 1
  74   35   39 1
  75   35   93 1
  76   36   37 1
  77   36   38 1
  78   36   94 1
  79   37   95 1
  80   37   96 1
  81   37   97 1
  82   38   98 1
  83   38   99 1
  84   38  100 1
  85   39   40 am
  86   39  101 1
  87   40   41 2
  88   40   42 1
  89   42   43 1
  90   42   50 1
  91   42  102 1
  92   43   44 am
  93   43  103 1
  94   44   45 2
  95   44   46 1
  96   46   47 1
  97   46   49 1
  98   46  104 1
  99   47   48 1
 100   47  105 1
 101   47  106 1
 102   48  107 1
 103   49  108 1
 104   49  109 1
 105   50   51 1
 106   50  110 1
 107   50  111 1
 108   51   52 1
 109   51  112 1
 110   51  113 1
 111   52   53 1
 112   52  114 1
 113   52  115 1
 114   53   54 1
 115   53  116 1
 116   54   55 2
 117   54   56 1
 118   55  117 1
 119   56  118 1
 120   56  119 1

#	End of record

