#	Name: ASD01885763
#	Creating user name:	WinNT
#	Creation time:	15. 06. 2019 19:50

#	Modifying user name:	WinNT
#	Modification time:	15. 06. 2019 19:50

#	Program:	/corina/corina34_cracker 3.40 0067  02.08.2006

@<TRIPOS>MOLECULE
ASD01885763
  67   69    0    0    0
SMALL
NO_CHARGES


@<TRIPOS>ATOM
   1 C1            -0.1128     1.2490    -0.6579 C.ar    
   2 C2            -1.1574     2.0460    -1.1908 C.ar    
   3 C3            -2.4467     1.4769    -1.3470 C.ar    
   4 C4            -2.6234     0.1535    -0.9661 C.ar    
   5 C5            -1.5406    -0.5651    -0.4485 C.ar    
   6 N6            -0.3476    -0.0172    -0.3113 N.ar    
   7 C7             1.3815     3.1081    -0.8701 C.ar    
   8 C8             0.3504     3.8891    -1.3875 C.ar    
   9 C9            -0.9010     3.3748    -1.5519 C.ar    
  10 C10           -3.5695     2.2692    -1.8985 C.2     
  11 C11           -1.7378    -1.9781    -0.0441 C.2     
  12 C12            2.7534     3.7085    -0.7010 C.3     
  13 N13            2.8597     4.3197     0.6306 N.3     
  14 C14            1.1680     1.8137    -0.5085 C.ar    
  15 N15           -0.7059    -2.6861     0.4562 N.am    
  16 O16           -2.8296    -2.4975    -0.1638 O.2     
  17 C17            4.2167     4.8329     0.8679 C.3     
  18 C18            4.2992     5.4059     2.2852 C.3     
  19 O19            3.3020     6.4188     2.4433 O.3     
  20 C20            1.9682     5.9534     2.2200 C.3     
  21 C21            1.8622     5.3860     0.8020 C.3     
  22 C22           -4.4058     1.8904    -2.9114 C.2     
  23 N23           -5.2858     2.8906    -3.1081 N.pl3   
  24 N24           -4.9952     3.9162    -2.2007 N.2     
  25 C25           -3.9757     3.5503    -1.4710 C.2     
  26 C26            5.2272     3.6938     0.7177 C.3     
  27 C27            5.0160     2.6737     1.8383 C.3     
  28 C28            3.6428     2.0181     1.6790 C.3     
  29 C29            6.1049     1.6015     1.7637 C.3     
  30 C30           -6.3622     2.9035    -4.1018 C.3     
  31 H31           -3.5898    -0.3177    -1.0684 H       
  32 H32            0.5453     4.9153    -1.6619 H       
  33 H33           -1.6908     3.9887    -1.9588 H       
  34 H34            3.5069     2.9277    -0.8036 H       
  35 H35            2.9132     4.4702    -1.4642 H       
  36 H36            1.9779     1.2221    -0.1080 H       
  37 H37            0.1658    -2.2715     0.5518 H       
  38 H38           -0.8349    -3.6104     0.7207 H       
  39 H39            4.4410     5.6169     0.1447 H       
  40 H40            4.1278     4.6101     3.0101 H       
  41 H41            5.2865     5.8389     2.4459 H       
  42 H42            1.7290     5.1735     2.9430 H       
  43 H43            1.2697     6.7824     2.3335 H       
  44 H44            2.0488     6.1789     0.0778 H       
  45 H45            0.8633     4.9782     0.6469 H       
  46 H46           -4.3674     0.9582    -3.4554 H       
  47 H47           -3.5215     4.1287    -0.6801 H       
  48 H48            5.0859     3.2077    -0.2476 H       
  49 H49            6.2388     4.0953     0.7778 H       
  50 H50            5.0681     3.1779     2.8032 H       
  51 H51            2.8636     2.7560     1.8694 H       
  52 H52            3.5392     1.6338     0.6642 H       
  53 H53            3.5474     1.1973     2.3898 H       
  54 H54            7.0831     2.0685     1.8772 H       
  55 H55            5.9544     0.8747     2.5620 H       
  56 H56            6.0527     1.0972     0.7987 H       
  57 H57           -7.2663     2.4807    -3.6637 H       
  58 H58           -6.5556     3.9295    -4.4147 H       
  59 H59           -6.0656     2.3097    -4.9665 H       
  60 C60           13.0850    13.6895     8.9153 C.3     
  61 C61           13.1057    12.1597     8.9069 C.3     
  62 H62           14.1076    14.0668     8.9076 H       
  63 H63           12.5578    14.0506     8.0322 H       
  64 H64           12.5748    14.0411     9.8121 H       
  65 H65           13.6329    11.7986     9.7899 H       
  66 H66           12.0831    11.7824     8.9146 H       
  67 H67           13.6159    11.8082     8.0101 H       
@<TRIPOS>BOND
   1    1    6 ar
   2    1   14 ar
   3    1    2 ar
   4    2    3 ar
   5    2    9 ar
   6    3   10 1
   7    3    4 ar
   8    4    5 ar
   9    4   31 1
  10    5   11 1
  11    5    6 ar
  12    7   12 1
  13    7    8 ar
  14    7   14 ar
  15    8    9 ar
  16    8   32 1
  17    9   33 1
  18   10   22 2
  19   10   25 1
  20   11   15 am
  21   11   16 2
  22   12   13 1
  23   12   34 1
  24   12   35 1
  25   13   17 1
  26   13   21 1
  27   14   36 1
  28   15   37 1
  29   15   38 1
  30   17   18 1
  31   17   26 1
  32   17   39 1
  33   18   19 1
  34   18   40 1
  35   18   41 1
  36   19   20 1
  37   20   21 1
  38   20   42 1
  39   20   43 1
  40   21   44 1
  41   21   45 1
  42   22   23 1
  43   22   46 1
  44   23   30 1
  45   23   24 1
  46   24   25 2
  47   25   47 1
  48   26   27 1
  49   26   48 1
  50   26   49 1
  51   27   28 1
  52   27   29 1
  53   27   50 1
  54   28   51 1
  55   28   52 1
  56   28   53 1
  57   29   54 1
  58   29   55 1
  59   29   56 1
  60   30   57 1
  61   30   58 1
  62   30   59 1
  63   60   61 1
  64   60   62 1
  65   60   63 1
  66   60   64 1
  67   61   65 1
  68   61   66 1
  69   61   67 1

#	End of record

