#	Name: ASD04880513
#	Creating user name:	WinNT
#	Creation time:	15. 06. 2019 20:53

#	Modifying user name:	WinNT
#	Modification time:	15. 06. 2019 20:53

#	Program:	/corina/corina34_cracker 3.40 0067  02.08.2006

@<TRIPOS>MOLECULE
ASD04880513
  40   42    0    0    0
SMALL
NO_CHARGES


@<TRIPOS>ATOM
   1 C1            -0.0144     1.2118     0.0087 C.2     
   2 O2             0.0436    -0.0026     0.0315 O.2     
   3 N3             1.1185     1.9396    -0.0483 N.am    
   4 N4             1.1861     3.3240    -0.1910 N.2     
   5 C5             2.3862     3.7923    -0.2195 C.2     
   6 C6             3.3749     2.6562    -0.0848 C.3     
   7 C7             2.4860     1.4027     0.0365 C.3     
   8 C8             2.7407     5.2160    -0.3619 C.ar    
   9 C9             1.7357     6.1803    -0.4790 C.ar    
  10 C10            2.0717     7.5099    -0.6115 C.ar    
  11 C11            3.4070     7.8926    -0.6292 C.ar    
  12 C12            4.4090     6.9380    -0.5132 C.ar    
  13 C13            4.0823     5.6063    -0.3745 C.ar    
  14 C14            0.9890     8.5505    -0.7378 C.3     
  15 O15            3.7336     9.2046    -0.7609 O.3     
  16 C16            5.1253     9.5288    -0.7716 C.3     
  17 C17           -1.3275     1.8895     0.0373 C.ar    
  18 C18           -2.5036     1.1431    -0.0542 C.ar    
  19 C19           -3.7276     1.7832    -0.0263 C.ar    
  20 C20           -3.7879     3.1628     0.0922 C.ar    
  21 C21           -2.6252     3.9063     0.1827 C.ar    
  22 C22           -1.3968     3.2781     0.1618 C.ar    
  23 F23           -4.8674     1.0634    -0.1151 F       
  24 H24            4.0097     2.5950    -0.9687 H       
  25 H25            3.9797     2.7802     0.8136 H       
  26 H26            2.6453     0.9085     0.9949 H       
  27 H27            2.6801     0.7158    -0.7873 H       
  28 H28            0.6973     5.8835    -0.4660 H       
  29 H29            5.4458     7.2401    -0.5278 H       
  30 H30            4.8621     4.8651    -0.2802 H       
  31 H31            0.7108     8.9075     0.2538 H       
  32 H32            1.3555     9.3854    -1.3350 H       
  33 H33            0.1177     8.1112    -1.2235 H       
  34 H34            5.6103     9.0211    -1.6054 H       
  35 H35            5.2466    10.6064    -0.8822 H       
  36 H36            5.5808     9.2062     0.1647 H       
  37 H37           -2.4567     0.0681    -0.1469 H       
  38 H38           -4.7467     3.6594     0.1137 H       
  39 H39           -2.6789     4.9810     0.2745 H       
  40 H40           -0.4903     3.8602     0.2375 H       
@<TRIPOS>BOND
   1    1    2 2
   2    1    3 am
   3    1   17 1
   4    3    4 1
   5    3    7 1
   6    4    5 2
   7    5    6 1
   8    5    8 1
   9    6    7 1
  10    6   24 1
  11    6   25 1
  12    7   26 1
  13    7   27 1
  14    8    9 ar
  15    8   13 ar
  16    9   10 ar
  17    9   28 1
  18   10   11 ar
  19   10   14 1
  20   11   12 ar
  21   11   15 1
  22   12   13 ar
  23   12   29 1
  24   13   30 1
  25   14   31 1
  26   14   32 1
  27   14   33 1
  28   15   16 1
  29   16   34 1
  30   16   35 1
  31   16   36 1
  32   17   18 ar
  33   17   22 ar
  34   18   19 ar
  35   18   37 1
  36   19   20 ar
  37   19   23 1
  38   20   21 ar
  39   20   38 1
  40   21   22 ar
  41   21   39 1
  42   22   40 1

#	End of record

