#	Name: ASD00460058
#	Creating user name:	WinNT
#	Creation time:	15. 06. 2019 18:36

#	Modifying user name:	WinNT
#	Modification time:	15. 06. 2019 18:36

#	Program:	/corina/corina34_cracker 3.40 0067  02.08.2006

@<TRIPOS>MOLECULE
ASD00460058
  24   24    0    0    0
SMALL
NO_CHARGES


@<TRIPOS>ATOM
   1 O1            -0.0173     1.4248     0.0099 O.3     
   2 C2             0.0021    -0.0041     0.0020 C.3     
   3 C3             0.7175    -0.5102     1.2573 C.3     
   4 C4             2.1334     0.0727     1.2986 C.3     
   5 C5             2.0458     1.6014     1.2560 C.3     
   6 C6             1.2791     2.0260     0.0007 C.3     
   7 C7            -1.4332    -0.5337    -0.0158 C.3     
   8 O8             2.7834    -0.3354     2.5040 O.3     
   9 O9             0.7892    -1.9370     1.2235 O.3     
  10 O10            3.3630     2.1544     1.2209 O.3     
  11 O11           -2.0645    -0.1576    -1.2414 O.3     
  12 O12            1.9937     1.6000    -1.1611 O.3     
  13 H13            0.5305    -0.3556    -0.8842 H       
  14 H14            0.1670    -0.1932     2.1431 H       
  15 H15            2.6999    -0.2842     0.4385 H       
  16 H16            1.5222     1.9611     2.1417 H       
  17 H17            1.1765     3.1110    -0.0129 H       
  18 H18           -1.4205    -1.6204     0.0677 H       
  19 H19           -1.9869    -0.1113     0.8227 H       
  20 H20            3.6861    -0.0014     2.5966 H       
  21 H21            1.2313    -2.3269     1.9901 H       
  22 H22            3.3832     3.1208     1.1928 H       
  23 H23           -2.9793    -0.4606    -1.3218 H       
  24 H24            1.5644     1.8350    -1.9951 H       
@<TRIPOS>BOND
   1    1    2 1
   2    1    6 1
   3    2    3 1
   4    2    7 1
   5    2   13 1
   6    3    4 1
   7    3    9 1
   8    3   14 1
   9    4    5 1
  10    4    8 1
  11    4   15 1
  12    5    6 1
  13    5   10 1
  14    5   16 1
  15    6   12 1
  16    6   17 1
  17    7   11 1
  18    7   18 1
  19    7   19 1
  20    8   20 1
  21    9   21 1
  22   10   22 1
  23   11   23 1
  24   12   24 1

#	End of record

