#	Name: ASD01841051
#	Creating user name:	WinNT
#	Creation time:	15. 06. 2019 19:38

#	Modifying user name:	WinNT
#	Modification time:	15. 06. 2019 19:38

#	Program:	/corina/corina34_cracker 3.40 0067  02.08.2006

@<TRIPOS>MOLECULE
ASD01841051
  40   42    0    0    0
SMALL
NO_CHARGES


@<TRIPOS>ATOM
   1 C1            -0.0162     1.3436     0.0094 C.2     
   2 N2            -0.1166    -0.0005     0.0139 N.am    
   3 O3             1.0790     1.8713    -0.0016 O.2     
   4 N4            -1.1300     2.1025     0.0116 N.am    
   5 S5            -2.3938     4.5890     0.1291 S.3     
   6 C6            -1.0290     3.4809     0.1138 C.2     
   7 N7             0.0775     4.1317     0.2113 N.2     
   8 C8             0.0132     5.4755     0.3038 C.ar    
   9 C9            -1.2966     5.9599     0.2773 C.ar    
  10 C10           -1.5450     7.3288     0.3626 C.ar    
  11 C11           -0.5003     8.2188     0.4739 C.ar    
  12 C12            0.8064     7.7551     0.5011 C.ar    
  13 C13            1.0720     6.4067     0.4190 C.ar    
  14 C14           -2.9634     7.8371     0.3323 C.3     
  15 O15            2.3583     5.9679     0.4476 O.3     
  16 C16            3.3798     6.9603     0.5655 C.3     
  17 C17           -1.4269    -0.6528     0.1413 C.3     
  18 C18           -1.6023    -1.6376    -1.0190 C.3     
  19 C19           -0.4177    -2.6062    -1.0442 C.3     
  20 C20            0.8786    -1.8238    -1.2665 C.3     
  21 C21            1.0816    -0.8411    -0.1147 C.3     
  22 H22           -2.0022     1.6840    -0.0583 H       
  23 H23           -0.6985     9.2785     0.5396 H       
  24 H24            1.6223     8.4574     0.5878 H       
  25 H25           -3.3532     7.8872     1.3490 H       
  26 H26           -2.9836     8.8314    -0.1140 H       
  27 H27           -3.5793     7.1604    -0.2600 H       
  28 H28            3.3222     7.6435    -0.2819 H       
  29 H29            3.2398     7.5176     1.4917 H       
  30 H30            4.3566     6.4767     0.5765 H       
  31 H31           -1.4767    -1.1909     1.0879 H       
  32 H32           -2.2148     0.0995     0.1043 H       
  33 H33           -2.5275    -2.1978    -0.8840 H       
  34 H34           -1.6431    -1.0882    -1.9595 H       
  35 H35           -0.3627    -3.1375    -0.0940 H       
  36 H36           -0.5523    -3.3235    -1.8538 H       
  37 H37            1.7192    -2.5165    -1.3077 H       
  38 H38            0.8145    -1.2726    -2.2047 H       
  39 H39            1.9494    -0.2137    -0.3182 H       
  40 H40            1.2359    -1.3922     0.8129 H       
@<TRIPOS>BOND
   1    1    2 am
   2    1    3 2
   3    1    4 am
   4    2   17 1
   5    2   21 1
   6    4    6 1
   7    4   22 1
   8    5    6 1
   9    5    9 1
  10    6    7 2
  11    7    8 1
  12    8    9 ar
  13    8   13 ar
  14    9   10 ar
  15   10   11 ar
  16   10   14 1
  17   11   12 ar
  18   11   23 1
  19   12   13 ar
  20   12   24 1
  21   13   15 1
  22   14   25 1
  23   14   26 1
  24   14   27 1
  25   15   16 1
  26   16   28 1
  27   16   29 1
  28   16   30 1
  29   17   18 1
  30   17   31 1
  31   17   32 1
  32   18   19 1
  33   18   33 1
  34   18   34 1
  35   19   20 1
  36   19   35 1
  37   19   36 1
  38   20   21 1
  39   20   37 1
  40   20   38 1
  41   21   39 1
  42   21   40 1

#	End of record

