#	Name: ASD01811499
#	Creating user name:	WinNT
#	Creation time:	15. 06. 2019 19:26

#	Modifying user name:	WinNT
#	Modification time:	15. 06. 2019 19:26

#	Program:	/corina/corina34_cracker 3.40 0067  02.08.2006

@<TRIPOS>MOLECULE
ASD01811499
  34   34    0    0    0
SMALL
NO_CHARGES


@<TRIPOS>ATOM
   1 N1            -0.0181     1.4833     0.0102 N.am    
   2 C2             0.0021    -0.0041     0.0020 C.3     
   3 C3             1.1320    -0.5031    -0.9317 C.3     
   4 C4             1.2583     0.2948    -2.1715 C.2     
   5 C5             2.1497     1.5370    -2.1943 C.3     
   6 C6             1.4936     2.6252    -1.4546 C.3     
   7 C7             1.1934     2.2503     0.0027 C.3     
   8 C8            -1.2032     2.1251     0.0192 C.2     
   9 O9            -1.2362     3.3398     0.0260 O.2     
  10 O10           -2.3504     1.4205     0.0208 O.3     
  11 O11            0.6576    -0.0355    -3.1657 O.2     
  12 C12           -3.5892     2.1779     0.0307 C.3     
  13 C13           -3.6539     3.0661    -1.2134 C.3     
  14 C14           -4.7768     1.2132     0.0310 C.3     
  15 C15           -3.6422     3.0525     1.2850 C.3     
  16 H16            0.1787    -0.3702     1.0134 H       
  17 H17           -0.9568    -0.3781    -0.3567 H       
  18 H18            2.0774    -0.4614    -0.3906 H       
  19 H19            0.9312    -1.5399    -1.2013 H       
  20 H20            3.1070     1.3058    -1.7272 H       
  21 H21            2.3145     1.8470    -3.2262 H       
  22 H22            2.1427     3.5008    -1.4668 H       
  23 H23            0.5576     2.8761    -1.9536 H       
  24 H24            1.0630     3.1539     0.5982 H       
  25 H25            2.0114     1.6542     0.4073 H       
  26 H26           -3.6161     2.4430    -2.1070 H       
  27 H27           -4.5838     3.6346    -1.2060 H       
  28 H28           -2.8079     3.7533    -1.2137 H       
  29 H29           -4.7307     0.5805     0.9174 H       
  30 H30           -5.7067     1.7818     0.0385 H       
  31 H31           -4.7390     0.5902    -0.8625 H       
  32 H32           -2.7961     3.7397     1.2848 H       
  33 H33           -4.5721     3.6210     1.2924 H       
  34 H34           -3.5961     2.4197     2.1713 H       
@<TRIPOS>BOND
   1    1    2 1
   2    1    7 1
   3    1    8 am
   4    2    3 1
   5    2   16 1
   6    2   17 1
   7    3    4 1
   8    3   18 1
   9    3   19 1
  10    4    5 1
  11    4   11 2
  12    5    6 1
  13    5   20 1
  14    5   21 1
  15    6    7 1
  16    6   22 1
  17    6   23 1
  18    7   24 1
  19    7   25 1
  20    8    9 2
  21    8   10 1
  22   10   12 1
  23   12   13 1
  24   12   15 1
  25   12   14 1
  26   13   26 1
  27   13   27 1
  28   13   28 1
  29   14   29 1
  30   14   30 1
  31   14   31 1
  32   15   32 1
  33   15   33 1
  34   15   34 1

#	End of record

