#	Name: ASD02900009
#	Creating user name:	WinNT
#	Creation time:	15. 06. 2019 20:26

#	Modifying user name:	WinNT
#	Modification time:	15. 06. 2019 20:26

#	Program:	/corina/corina34_cracker 3.40 0067  02.08.2006

@<TRIPOS>MOLECULE
ASD02900009
  33   33    0    0    0
SMALL
NO_CHARGES


@<TRIPOS>ATOM
   1 N1            -0.0162     1.3436     0.0094 N.am    
   2 C2             0.1044     0.0182    -0.2033 C.2     
   3 S3             1.6322    -0.6515    -0.5883 S.2     
   4 N4            -0.9778    -0.7800    -0.1130 N.am    
   5 C5            -0.8468    -2.2207    -0.3443 C.3     
   6 C6            -2.2131    -2.8897    -0.1817 C.3     
   7 O7            -3.0970    -2.4219    -1.2025 O.3     
   8 P8            -4.6231    -2.9173    -1.3357 P.3     
   9 O9            -4.6566    -4.3945    -1.4202 O.2     
  10 O10           -5.4585    -2.4344    -0.0469 O.3     
  11 O11           -5.2773    -2.2887    -2.6657 O.3     
  12 C12            1.1204     2.1591     0.0039 C.ar    
  13 C13            2.0710     2.0212    -0.9992 C.ar    
  14 C14            3.1920     2.8279    -1.0017 C.ar    
  15 C15            3.3687     3.7718    -0.0066 C.ar    
  16 C16            2.4243     3.9112     0.9938 C.ar    
  17 C17            1.2978     3.1122     0.9984 C.ar    
  18 C18            4.5933     4.6499    -0.0122 C.3     
  19 F19            4.3303     5.8124    -0.7448 F       
  20 F20            4.9274     4.9928     1.3023 F       
  21 F21            5.6593     3.9599    -0.5994 F       
  22 H22           -0.8915     1.7326     0.1624 H       
  23 H23           -1.8435    -0.4006     0.1051 H       
  24 H24           -0.4751    -2.3943    -1.3542 H       
  25 H25           -0.1475    -2.6425     0.3777 H       
  26 H26           -2.1007    -3.9706    -0.2659 H       
  27 H27           -2.6247    -2.6423     0.7967 H       
  28 H28           -5.4793    -1.4749     0.0714 H       
  29 H29           -6.1983    -2.5454    -2.8101 H       
  30 H30            1.9339     1.2838    -1.7762 H       
  31 H31            3.9316     2.7212    -1.7814 H       
  32 H32            2.5654     4.6491     1.7698 H       
  33 H33            0.5606     3.2216     1.7800 H       
@<TRIPOS>BOND
   1    1    2 am
   2    1   12 1
   3    1   22 1
   4    2    3 2
   5    2    4 am
   6    4    5 1
   7    4   23 1
   8    5    6 1
   9    5   24 1
  10    5   25 1
  11    6    7 1
  12    6   26 1
  13    6   27 1
  14    7    8 1
  15    8    9 2
  16    8   10 1
  17    8   11 1
  18   10   28 1
  19   11   29 1
  20   12   13 ar
  21   12   17 ar
  22   13   14 ar
  23   13   30 1
  24   14   15 ar
  25   14   31 1
  26   15   16 ar
  27   15   18 1
  28   16   17 ar
  29   16   32 1
  30   17   33 1
  31   18   19 1
  32   18   20 1
  33   18   21 1

#	End of record

