#	Name: ASD01000011
#	Creating user name:	WinNT
#	Creation time:	15. 06. 2019 18:54

#	Modifying user name:	WinNT
#	Modification time:	15. 06. 2019 18:54

#	Program:	/corina/corina34_cracker 3.40 0067  02.08.2006

@<TRIPOS>MOLECULE
ASD01000011
  35   37    0    0    0
SMALL
NO_CHARGES


@<TRIPOS>ATOM
   1 C1             0.0696     1.2193     0.2605 C.ar    
   2 C2             0.0296    -0.1542     0.0551 C.ar    
   3 C3            -1.1918    -0.8078    -0.0204 C.ar    
   4 C4            -2.3703    -0.0863     0.1096 C.ar    
   5 C5            -2.3232     1.2876     0.3148 C.ar    
   6 C6            -1.1052     1.9342     0.3946 C.ar    
   7 C7             1.3980     1.9259     0.3426 C.3     
   8 C8             2.4265     1.0055     1.0007 C.3     
   9 C9             2.3840    -0.3538     0.3562 C.2     
  10 N10            1.2207    -0.8752    -0.0745 N.am    
  11 O11            3.4102    -0.9866     0.2234 O.2     
  12 N12           -3.6026    -0.7403     0.0339 N.pl3   
  13 C13           -4.7008    -0.2453     0.7416 C.ar    
  14 C14           -5.9869    -0.4337     0.2518 C.ar    
  15 C15           -4.5093     0.4316     1.9398 C.ar    
  16 C16           -5.5969     0.9196     2.6367 C.ar    
  17 C17           -6.8758     0.7351     2.1432 C.ar    
  18 C18           -7.0703     0.0570     0.9541 C.ar    
  19 C19           -5.3903     1.6535     3.9366 C.3     
  20 F20           -5.2365     3.0203     3.6810 F       
  21 F21           -6.5001     1.4560     4.7651 F       
  22 F22           -4.2425     1.1655     4.5703 F       
  23 H23           -1.2255    -1.8753    -0.1805 H       
  24 H24           -3.2399     1.8497     0.4157 H       
  25 H25           -1.0711     3.0017     0.5544 H       
  26 H26            1.7335     2.1863    -0.6612 H       
  27 H27            1.2904     2.8336     0.9364 H       
  28 H28            3.4225     1.4318     0.8814 H       
  29 H29            2.1997     0.9100     2.0626 H       
  30 H30            1.2083    -1.7572    -0.4780 H       
  31 H31           -3.6956    -1.5380    -0.5101 H       
  32 H32           -6.1395    -0.9630    -0.6771 H       
  33 H33           -3.5110     0.5757     2.3258 H       
  34 H34           -7.7247     1.1175     2.6905 H       
  35 H35           -8.0702    -0.0850     0.5714 H       
@<TRIPOS>BOND
   1    1    2 ar
   2    1    7 1
   3    1    6 ar
   4    2    3 ar
   5    2   10 1
   6    3    4 ar
   7    3   23 1
   8    4    5 ar
   9    4   12 1
  10    5    6 ar
  11    5   24 1
  12    6   25 1
  13    7    8 1
  14    7   26 1
  15    7   27 1
  16    8    9 1
  17    8   28 1
  18    8   29 1
  19    9   10 am
  20    9   11 2
  21   10   30 1
  22   12   13 1
  23   12   31 1
  24   13   14 ar
  25   13   15 ar
  26   14   18 ar
  27   14   32 1
  28   15   16 ar
  29   15   33 1
  30   16   17 ar
  31   16   19 1
  32   17   18 ar
  33   17   34 1
  34   18   35 1
  35   19   20 1
  36   19   21 1
  37   19   22 1

#	End of record

