#	Name: ASD03540398
#	Creating user name:	WinNT
#	Creation time:	15. 06. 2019 20:43

#	Modifying user name:	WinNT
#	Modification time:	15. 06. 2019 20:43

#	Program:	/corina/corina34_cracker 3.40 0067  02.08.2006

@<TRIPOS>MOLECULE
ASD03540398
  59   63    0    0    0
SMALL
NO_CHARGES


@<TRIPOS>ATOM
   1 N1            -0.0161     1.3395     0.0094 N.am    
   2 C2             0.0021    -0.0041     0.0020 C.2     
   3 N3             1.1389    -0.7173    -0.0126 N.am    
   4 C4             2.3459    -0.1107    -0.0209 C.2     
   5 C5             2.3856     1.3633    -0.0133 C.ar    
   6 C6             3.5869     2.0604    -0.0206 C.ar    
   7 C7             3.5657     3.4551    -0.0124 C.ar    
   8 C8             2.3429     4.1385     0.0033 C.ar    
   9 C9             1.1618     3.4521     0.0104 C.ar    
  10 C10            1.1635     2.0628     0.0020 C.ar    
  11 C11            4.8323     4.2113    -0.0199 C.2     
  12 O12            5.8932     3.6192    -0.0332 O.2     
  13 O13            4.8127     5.5585    -0.0121 O.3     
  14 O14            3.3720    -0.7627    -0.0337 O.2     
  15 O15           -1.0577    -0.5997     0.0093 O.2     
  16 C16           -1.2992     2.0465     0.0193 C.3     
  17 C17            1.0696    -2.1807    -0.0194 C.3     
  18 C18            1.0320    -2.6753    -1.4424 C.ar    
  19 C19            2.2040    -2.9645    -2.1244 C.ar    
  20 C20            2.1303    -3.4165    -3.4284 C.ar    
  21 N21            0.9638    -3.5728    -4.0232 N.ar    
  22 C22           -0.1707    -3.3076    -3.4055 C.ar    
  23 C23           -0.1756    -2.8574    -2.0988 C.ar    
  24 C24            6.0967     6.2365    -0.0202 C.3     
  25 C25            5.5862     9.7720     1.2018 C.ar    
  26 C26            5.4754    10.4627     0.0096 C.ar    
  27 C27            5.7881     8.4045     1.1922 C.ar    
  28 C28            5.8775     7.7275    -0.0097 C.ar    
  29 C29            5.7663     8.4181    -1.2020 C.ar    
  30 C30            5.5652     9.7858    -1.1923 C.ar    
  31 C31           -1.7325     2.2812     1.4435 C.ar    
  32 C32           -1.3535     3.4374     2.0996 C.ar    
  33 C33           -1.7509     3.6526     3.4060 C.ar    
  34 C34           -2.5277     2.7120     4.0561 C.ar    
  35 C35           -2.9075     1.5562     3.3996 C.ar    
  36 C36           -2.5137     1.3430     2.0918 C.ar    
  37 H37            4.5268     1.5286    -0.0320 H       
  38 H38            2.3339     5.2185     0.0102 H       
  39 H39            0.2255     3.9901     0.0226 H       
  40 H40           -1.1904     3.0041    -0.4899 H       
  41 H41           -2.0494     1.4452    -0.4943 H       
  42 H42            1.9463    -2.5883     0.4839 H       
  43 H43            0.1684    -2.5041     0.5016 H       
  44 H44            3.1624    -2.8378    -1.6429 H       
  45 H45            3.0386    -3.6440    -3.9666 H       
  46 H46           -1.1069    -3.4475    -3.9254 H       
  47 H47           -1.1082    -2.6463    -1.5967 H       
  48 H48            6.6661     5.9468     0.8629 H       
  49 H49            6.6495     5.9569    -0.9170 H       
  50 H50            5.5204    10.3015     2.1408 H       
  51 H51            5.3172    11.5310     0.0171 H       
  52 H52            5.8750     7.8649     2.1237 H       
  53 H53            5.8361     7.8892    -2.1410 H       
  54 H54            5.4787    10.3254    -2.1238 H       
  55 H55           -0.7466     4.1723     1.5917 H       
  56 H56           -1.4541     4.5556     3.9189 H       
  57 H57           -2.8375     2.8798     5.0769 H       
  58 H58           -3.5141     0.8211     3.9076 H       
  59 H59           -2.8104     0.4400     1.5789 H       
@<TRIPOS>BOND
   1    1    2 am
   2    1   10 1
   3    1   16 1
   4    2    3 am
   5    2   15 2
   6    3    4 am
   7    3   17 1
   8    4    5 1
   9    4   14 2
  10    5    6 ar
  11    5   10 ar
  12    6    7 ar
  13    6   37 1
  14    7    8 ar
  15    7   11 1
  16    8    9 ar
  17    8   38 1
  18    9   10 ar
  19    9   39 1
  20   11   12 2
  21   11   13 1
  22   13   24 1
  23   16   31 1
  24   16   40 1
  25   16   41 1
  26   17   18 1
  27   17   42 1
  28   17   43 1
  29   18   19 ar
  30   18   23 ar
  31   19   20 ar
  32   19   44 1
  33   20   21 ar
  34   20   45 1
  35   21   22 ar
  36   22   23 ar
  37   22   46 1
  38   23   47 1
  39   24   28 1
  40   24   48 1
  41   24   49 1
  42   25   26 ar
  43   25   27 ar
  44   25   50 1
  45   26   30 ar
  46   26   51 1
  47   27   28 ar
  48   27   52 1
  49   28   29 ar
  50   29   30 ar
  51   29   53 1
  52   30   54 1
  53   31   32 ar
  54   31   36 ar
  55   32   33 ar
  56   32   55 1
  57   33   34 ar
  58   33   56 1
  59   34   35 ar
  60   34   57 1
  61   35   36 ar
  62   35   58 1
  63   36   59 1

#	End of record

