#	Name: ASD07931697
#	Creating user name:	WinNT
#	Creation time:	15. 06. 2019 21:13

#	Modifying user name:	WinNT
#	Modification time:	15. 06. 2019 21:13

#	Program:	/corina/corina34_cracker 3.40 0067  02.08.2006

@<TRIPOS>MOLECULE
ASD07931697
  57   61    0    0    0
SMALL
NO_CHARGES


@<TRIPOS>ATOM
   1 C1            -0.0424     1.4136    -0.4111 C.2     
   2 C2            -0.0346     0.0652    -0.1808 C.2     
   3 C3             1.2484    -0.6061     0.0418 C.2     
   4 N4             2.3821     0.1159     0.0164 N.am    
   5 C5             2.3481     1.4717    -0.2196 C.2     
   6 C6             1.1684     2.1170    -0.4291 C.2     
   7 C7             3.6849    -0.5246     0.2419 C.3     
   8 C8             4.6945     0.0927    -0.7373 C.3     
   9 N9             4.7714     1.5376    -0.4790 N.am    
  10 C10            3.6249     2.2192    -0.2428 C.2     
  11 C11            6.0637     2.2276    -0.4769 C.3     
  12 O12            1.2875    -1.8071     0.2484 O.2     
  13 N13           -1.2297    -0.6593    -0.1578 N.pl3   
  14 C14           -2.0830    -0.8583    -1.2128 C.2     
  15 C15           -1.7629    -1.3046     0.9128 C.2     
  16 N16           -2.8826    -1.8650     0.5447 N.2     
  17 C17           -3.1031    -1.6074    -0.7533 C.2     
  18 C18           -4.2881    -2.0755    -1.5581 C.3     
  19 O19            3.6445     3.4201    -0.0543 O.2     
  20 C20            6.7466     2.2606    -1.8543 C.3     
  21 C21            7.4008     0.9216    -1.4747 C.3     
  22 C22            7.2322     1.3456    -0.0061 C.3     
  23 C23            8.8613     0.8063    -1.9155 C.3     
  24 O24            9.3445    -0.5067    -1.6245 O.3     
  25 C25           10.6348    -0.7772    -1.9561 C.ar    
  26 C26           11.4187     0.2012    -2.5492 C.ar    
  27 C27           12.7300    -0.0750    -2.8859 C.ar    
  28 C28           13.2612    -1.3279    -2.6318 C.ar    
  29 C29           12.4797    -2.3057    -2.0397 C.ar    
  30 C30           11.1703    -2.0303    -1.6965 C.ar    
  31 F31           14.5433    -1.5969    -2.9623 F       
  32 C32           10.3202    -3.0945    -1.0517 C.3     
  33 F33           11.0712    -4.2657    -0.9047 F       
  34 F34            9.8941    -2.6528     0.2055 F       
  35 F35            9.2061    -3.3531    -1.8574 F       
  36 H36           -0.9748     1.9310    -0.5823 H       
  37 H37            1.1659     3.1815    -0.6113 H       
  38 H38            4.0101    -0.3469     1.2669 H       
  39 H39            3.6045    -1.5964     0.0610 H       
  40 H40            5.6748    -0.3591    -0.5857 H       
  41 H41            4.3633    -0.0791    -1.7615 H       
  42 H42            6.0236     3.2000     0.0140 H       
  43 H43           -1.9602    -0.4858    -2.2190 H       
  44 H44           -1.3322    -1.3469     1.9023 H       
  45 H45           -5.0853    -1.3349    -1.4955 H       
  46 H46           -3.9923    -2.2038    -2.5993 H       
  47 H47           -4.6437    -3.0266    -1.1616 H       
  48 H48            6.0498     2.1850    -2.6891 H       
  49 H49            7.4590     3.0776    -1.9690 H       
  50 H50            6.8048     0.0512    -1.7490 H       
  51 H51            8.0773     1.9124     0.3845 H       
  52 H52            6.9274     0.5313     0.6512 H       
  53 H53            8.9330     0.9905    -2.9874 H       
  54 H54            9.4618     1.5414    -1.3796 H       
  55 H55           11.0042     1.1785    -2.7481 H       
  56 H56           13.3406     0.6867    -3.3477 H       
  57 H57           12.8953    -3.2828    -1.8424 H       
@<TRIPOS>BOND
   1    1    2 2
   2    1    6 1
   3    1   36 1
   4    2    3 1
   5    2   13 1
   6    3    4 am
   7    3   12 2
   8    4    5 1
   9    4    7 1
  10    5    6 2
  11    5   10 1
  12    6   37 1
  13    7    8 1
  14    7   38 1
  15    7   39 1
  16    8    9 1
  17    8   40 1
  18    8   41 1
  19    9   10 am
  20    9   11 1
  21   10   19 2
  22   11   20 1
  23   11   22 1
  24   11   42 1
  25   13   14 1
  26   13   15 1
  27   14   17 2
  28   14   43 1
  29   15   16 2
  30   15   44 1
  31   16   17 1
  32   17   18 1
  33   18   45 1
  34   18   46 1
  35   18   47 1
  36   20   21 1
  37   20   48 1
  38   20   49 1
  39   21   22 1
  40   21   23 1
  41   21   50 1
  42   22   51 1
  43   22   52 1
  44   23   24 1
  45   23   53 1
  46   23   54 1
  47   24   25 1
  48   25   26 ar
  49   25   30 ar
  50   26   27 ar
  51   26   55 1
  52   27   28 ar
  53   27   56 1
  54   28   29 ar
  55   28   31 1
  56   29   30 ar
  57   29   57 1
  58   30   32 1
  59   32   33 1
  60   32   34 1
  61   32   35 1

#	End of record

