#	Name: ASD04300002
#	Creating user name:	WinNT
#	Creation time:	15. 06. 2019 20:48

#	Modifying user name:	WinNT
#	Modification time:	15. 06. 2019 20:48

#	Program:	/corina/corina34_cracker 3.40 0067  02.08.2006

@<TRIPOS>MOLECULE
ASD04300002
  28   28    0    0    0
SMALL
NO_CHARGES


@<TRIPOS>ATOM
   1 C1            -0.0285     1.2784     0.1301 C.ar    
   2 C2             0.0262    -0.1001     0.1449 C.ar    
   3 C3             1.2595    -0.7509     0.0912 C.ar    
   4 C4             2.4359    -0.0156     0.0230 C.ar    
   5 C5             2.3924     1.3606     0.0076 C.ar    
   6 C6             1.1581     2.0225     0.0608 C.ar    
   7 C7             1.1077     3.4865     0.0442 C.2     
   8 C8             0.0792     4.1327    -0.6045 C.2     
   9 C9            -0.0503     5.5551    -0.5020 C.1     
  10 C10           -0.8609     3.3823    -1.3815 C.1     
  11 N11           -1.6067     2.7870    -1.9979 N.1     
  12 N12           -0.1531     6.6836    -0.4207 N.1     
  13 O13            1.3097    -2.1077     0.1060 O.3     
  14 C14            2.6045    -2.7097     0.0485 C.3     
  15 O15           -1.1223    -0.8252     0.2124 O.3     
  16 C16           -2.3489    -0.0940     0.2653 C.3     
  17 N17            3.6484     2.1406    -0.0646 N.pl3   
  18 O18            4.7233     1.5713    -0.0001 O.2     
  19 O19            3.6071     3.3515    -0.1885 O.2     
  20 H20           -0.9827     1.7829     0.1671 H       
  21 H21            3.3875    -0.5247    -0.0176 H       
  22 H22            1.8773     4.0589     0.5406 H       
  23 H23            3.1049    -2.4081    -0.8717 H       
  24 H24            3.1943    -2.3854     0.9059 H       
  25 H25            2.5019    -3.7947     0.0675 H       
  26 H26           -3.1855    -0.7909     0.3166 H       
  27 H27           -2.3534     0.5448     1.1485 H       
  28 H28           -2.4436     0.5220    -0.6290 H       
@<TRIPOS>BOND
   1    1    2 ar
   2    1    6 ar
   3    1   20 1
   4    2    3 ar
   5    2   15 1
   6    3    4 ar
   7    3   13 1
   8    4    5 ar
   9    4   21 1
  10    5    6 ar
  11    5   17 1
  12    6    7 1
  13    7    8 2
  14    7   22 1
  15    8    9 1
  16    8   10 1
  17    9   12 3
  18   10   11 3
  19   13   14 1
  20   14   23 1
  21   14   24 1
  22   14   25 1
  23   15   16 1
  24   16   26 1
  25   16   27 1
  26   16   28 1
  27   17   18 2
  28   17   19 2

#	End of record

