#	Name: ASD01610001
#	Creating user name:	WinNT
#	Creation time:	15. 06. 2019 19:22

#	Modifying user name:	WinNT
#	Modification time:	15. 06. 2019 19:22

#	Program:	/corina/corina34_cracker 3.40 0067  02.08.2006

@<TRIPOS>MOLECULE
ASD01610001
  28   30    0    0    0
SMALL
NO_CHARGES


@<TRIPOS>ATOM
   1 C1            -0.0187     1.5258     0.0104 C.3     
   2 C2             0.0021    -0.0041     0.0020 C.3     
   3 C3             0.7182    -0.4975    -1.2568 C.3     
   4 C4            -0.0218     0.0093    -2.4963 C.3     
   5 C5            -0.0425     1.5392    -2.4879 C.3     
   6 C6             1.3929     2.0688    -2.4988 C.3     
   7 C7             2.1328     1.5619    -1.2592 C.3     
   8 C8             1.4167     2.0553    -0.0004 C.3     
   9 C9             2.1536     0.0321    -1.2676 C.3     
  10 C10           -0.7587     2.0326    -1.2291 C.3     
  11 N11           -0.7063     1.9995     1.2190 N.3     
  12 H12            0.5293    -0.3651     0.8851 H       
  13 H13           -1.0205    -0.3814     0.0098 H       
  14 H14            0.7330    -1.5874    -1.2628 H       
  15 H15            0.4884    -0.3422    -3.3931 H       
  16 H16           -1.0444    -0.3679    -2.4886 H       
  17 H17           -0.5697     1.9003    -3.3710 H       
  18 H18            1.9030     1.7172    -3.3956 H       
  19 H19            1.3781     3.1587    -2.4928 H       
  20 H20            3.1554     1.9392    -1.2670 H       
  21 H21            1.4019     3.1452     0.0056 H       
  22 H22            1.9439     1.6943     0.8826 H       
  23 H23            2.6808    -0.3290    -0.3846 H       
  24 H24            2.6638    -0.3194    -2.1644 H       
  25 H25           -1.7813     1.6553    -1.2214 H       
  26 H26           -0.7734     3.1225    -1.2231 H       
  27 H27           -0.7332     3.0077     1.2480 H       
  28 H28           -1.6353     1.6110     1.2823 H       
@<TRIPOS>BOND
   1    1    2 1
   2    1    8 1
   3    1   10 1
   4    1   11 1
   5    2    3 1
   6    2   12 1
   7    2   13 1
   8    3    4 1
   9    3    9 1
  10    3   14 1
  11    4    5 1
  12    4   15 1
  13    4   16 1
  14    5    6 1
  15    5   10 1
  16    5   17 1
  17    6    7 1
  18    6   18 1
  19    6   19 1
  20    7    8 1
  21    7    9 1
  22    7   20 1
  23    8   21 1
  24    8   22 1
  25    9   23 1
  26    9   24 1
  27   10   25 1
  28   10   26 1
  29   11   27 1
  30   11   28 1

#	End of record

