#	Name: ASD01816484
#	Creating user name:	WinNT
#	Creation time:	15. 06. 2019 19:35

#	Modifying user name:	WinNT
#	Modification time:	15. 06. 2019 19:35

#	Program:	/corina/corina34_cracker 3.40 0067  02.08.2006

@<TRIPOS>MOLECULE
ASD01816484
  65   70    0    0    0
SMALL
NO_CHARGES


@<TRIPOS>ATOM
   1 C1            -0.7329     2.7551    -0.3477 C.ar    
   2 C2            -0.9699     1.4140    -0.6026 C.ar    
   3 C3             0.0782     0.5432    -0.8172 C.ar    
   4 C4             1.3883     1.0073    -0.7790 C.ar    
   5 C5             1.6253     2.3677    -0.5203 C.ar    
   6 C6             0.5599     3.2358    -0.3056 C.ar    
   7 N7             2.4445     0.1387    -0.9930 N.pl3   
   8 C8             3.7290     0.5293    -0.9682 C.2     
   9 C9             4.0825     1.8333    -0.7254 C.2     
  10 C10            3.0229     2.8390    -0.4843 C.2     
  11 C11            5.3376     2.5726    -0.6307 C.2     
  12 N12            5.0008     3.8531    -0.3649 N.am    
  13 N13            3.6121     3.9826    -0.2830 N.2     
  14 C14            5.9090     4.8967    -0.1962 C.ar    
  15 O15            6.4641     2.1239    -0.7645 O.2     
  16 C16            2.1475    -1.2712    -1.2580 C.3     
  17 C17            1.9887    -1.4808    -2.7419 C.ar    
  18 C18            3.0885    -1.8062    -3.5143 C.ar    
  19 C19            2.9462    -1.9985    -4.8746 C.ar    
  20 C20            1.6973    -1.8651    -5.4663 C.ar    
  21 C21            0.5949    -1.5387    -4.6880 C.ar    
  22 C22            0.7425    -1.3528    -3.3273 C.ar    
  23 N23            1.5497    -2.0591    -6.8467 N.pl3   
  24 C24            0.3962    -1.9603    -7.5455 C.2     
  25 C25            0.6777    -2.2195    -8.8435 C.2     
  26 C26            2.0478    -2.4856    -8.9424 C.2     
  27 N27            2.5722    -2.3838    -7.7476 N.2     
  28 C28            6.8460     5.1723    -1.1829 C.ar    
  29 C29            7.7444     6.2068    -1.0139 C.ar    
  30 C30            7.7192     6.9764     0.1377 C.ar    
  31 C31            6.7962     6.7171     1.1282 C.ar    
  32 C32            5.8773     5.6777     0.9692 C.ar    
  33 C33            4.8866     5.3951     2.0251 C.2     
  34 O34            3.7103     5.2788     1.7398 O.2     
  35 N35            5.2852     5.2659     3.3060 N.am    
  36 C36            4.2911     5.1042     4.3699 C.3     
  37 C37            4.0037     3.6158     4.5774 C.3     
  38 O38            5.1818     2.9659     5.0589 O.3     
  39 C39            6.7128     5.2871     3.6346 C.3     
  40 H40           -1.5626     3.4272    -0.1859 H       
  41 H41           -1.9851     1.0468    -0.6333 H       
  42 H42           -0.1190    -0.5001    -1.0146 H       
  43 H43            0.7437     4.2814    -0.1072 H       
  44 H44            4.5044    -0.2017    -1.1437 H       
  45 H45            2.9652    -1.8903    -0.8890 H       
  46 H46            1.2237    -1.5494    -0.7508 H       
  47 H47            4.0598    -1.9098    -3.0536 H       
  48 H48            3.8056    -2.2519    -5.4776 H       
  49 H49           -0.3778    -1.4339    -5.1454 H       
  50 H50           -0.1146    -1.0988    -2.7214 H       
  51 H51           -0.5753    -1.7186    -7.1404 H       
  52 H52           -0.0302    -2.2208    -9.6591 H       
  53 H53            2.5816    -2.7286    -9.8493 H       
  54 H54            6.8723     4.5766    -2.0833 H       
  55 H55            8.4717     6.4172    -1.7841 H       
  56 H56            8.4263     7.7835     0.2602 H       
  57 H57            6.7812     7.3196     2.0244 H       
  58 H58            4.6762     5.5323     5.2953 H       
  59 H59            3.3709     5.6160     4.0881 H       
  60 H60            3.2009     3.4988     5.3053 H       
  61 H61            3.7033     3.1682     3.6300 H       
  62 H62            5.0726     2.0175     5.2133 H       
  63 H63            7.0458     6.3195     3.7409 H       
  64 H64            6.8781     4.7538     4.5707 H       
  65 H65            7.2765     4.8039     2.8366 H       
@<TRIPOS>BOND
   1    1    2 ar
   2    1    6 ar
   3    1   40 1
   4    2    3 ar
   5    2   41 1
   6    3    4 ar
   7    3   42 1
   8    4    5 ar
   9    4    7 1
  10    5    6 ar
  11    5   10 1
  12    6   43 1
  13    7    8 1
  14    7   16 1
  15    8    9 2
  16    8   44 1
  17    9   10 1
  18    9   11 1
  19   10   13 2
  20   11   12 am
  21   11   15 2
  22   12   13 1
  23   12   14 1
  24   14   28 ar
  25   14   32 ar
  26   16   17 1
  27   16   45 1
  28   16   46 1
  29   17   18 ar
  30   17   22 ar
  31   18   19 ar
  32   18   47 1
  33   19   20 ar
  34   19   48 1
  35   20   21 ar
  36   20   23 1
  37   21   22 ar
  38   21   49 1
  39   22   50 1
  40   23   24 1
  41   23   27 1
  42   24   25 2
  43   24   51 1
  44   25   26 1
  45   25   52 1
  46   26   27 2
  47   26   53 1
  48   28   29 ar
  49   28   54 1
  50   29   30 ar
  51   29   55 1
  52   30   31 ar
  53   30   56 1
  54   31   32 ar
  55   31   57 1
  56   32   33 1
  57   33   34 2
  58   33   35 am
  59   35   36 1
  60   35   39 1
  61   36   37 1
  62   36   58 1
  63   36   59 1
  64   37   38 1
  65   37   60 1
  66   37   61 1
  67   38   62 1
  68   39   63 1
  69   39   64 1
  70   39   65 1

#	End of record

