#	Name: ASD06170211
#	Creating user name:	WinNT
#	Creation time:	15. 06. 2019 21:05

#	Modifying user name:	WinNT
#	Modification time:	15. 06. 2019 21:05

#	Program:	/corina/corina34_cracker 3.40 0067  02.08.2006

@<TRIPOS>MOLECULE
ASD06170211
  67   71    0    0    0
SMALL
NO_CHARGES


@<TRIPOS>ATOM
   1 C1            -0.1055     1.3866     0.6828 C.2     
   2 C2            -0.2103     0.1482     0.0066 C.2     
   3 C3             0.8469    -0.2576    -0.8275 C.2     
   4 C4             1.9674     0.5836    -0.9571 C.2     
   5 C5             2.0128     1.7558    -0.2868 C.2     
   6 N6             0.9914     2.1494     0.5201 N.am    
   7 C7            -1.3974    -0.6957     0.1725 C.2     
   8 O8            -1.4316    -1.8035    -0.3303 O.2     
   9 N9            -2.4509    -0.2448     0.8819 N.am    
  10 C10            1.0826     3.3731     1.1952 C.ar    
  11 C11            0.2803     4.4401     0.8129 C.ar    
  12 C12            0.3726     5.6456     1.4806 C.ar    
  13 C13            1.2628     5.7906     2.5288 C.ar    
  14 C14            2.0631     4.7299     2.9119 C.ar    
  15 C15            1.9714     3.5201     2.2519 C.ar    
  16 O16           -1.0097     1.7645     1.4080 O.2     
  17 N17            0.7868    -1.4540    -1.5034 N.pl3   
  18 C18            0.2266    -1.5038    -2.8561 C.3     
  19 C19            1.2830    -2.6785    -0.8705 C.3     
  20 C20           -3.5295    -1.0899     1.1422 C.ar    
  21 C21           -3.3547    -2.4678     1.0771 C.ar    
  22 C22           -4.4308    -3.2967     1.3375 C.ar    
  23 C23           -5.6551    -2.7142     1.6567 C.ar    
  24 C24           -5.7550    -1.3329     1.7028 C.ar    
  25 N25           -4.7065    -0.5717     1.4536 N.ar    
  26 O26           -6.7392    -3.4915     1.9194 O.3     
  27 N27           -7.0113    -5.1957     5.6655 N.ar    
  28 C28           -6.0118    -4.3963     5.3750 C.ar    
  29 C29           -5.8868    -3.8044     4.1246 C.ar    
  30 C30           -6.8351    -4.0556     3.1487 C.ar    
  31 C31           -7.9068    -4.9178     3.4726 C.ar    
  32 C32           -8.9062    -5.2202     2.5357 C.ar    
  33 C33           -9.9267    -6.0576     2.8830 C.ar    
  34 C34           -9.9859    -6.6183     4.1668 C.ar    
  35 C35           -9.0266    -6.3407     5.0975 C.ar    
  36 C36           -7.9638    -5.4825     4.7701 C.ar    
  37 O37          -11.0120    -7.4488     4.4890 O.3     
  38 C38          -11.0184    -7.9893     5.8118 C.3     
  39 O39          -10.8957    -6.3505     1.9752 O.3     
  40 C40          -10.7794    -5.7476     0.6848 C.3     
  41 H41            2.7911     0.2922    -1.5919 H       
  42 H42            2.8781     2.3931    -0.3937 H       
  43 H43           -2.4591     0.6675     1.2114 H       
  44 H44           -0.4149     4.3276    -0.0060 H       
  45 H45           -0.2508     6.4759     1.1835 H       
  46 H46            1.3334     6.7343     3.0492 H       
  47 H47            2.7576     4.8464     3.7307 H       
  48 H48            2.5935     2.6908     2.5544 H       
  49 H49            1.0044    -1.2622    -3.5806 H       
  50 H50           -0.1561    -2.5050    -3.0542 H       
  51 H51           -0.5852    -0.7813    -2.9400 H       
  52 H52            0.4728    -3.1573    -0.3206 H       
  53 H53            1.6538    -3.3591    -1.6369 H       
  54 H54            2.0917    -2.4302    -0.1830 H       
  55 H55           -2.3909    -2.8855     0.8261 H       
  56 H56           -4.3244    -4.3706     1.2940 H       
  57 H57           -6.7010    -0.8742     1.9496 H       
  58 H58           -5.2660    -4.1928     6.1292 H       
  59 H59           -5.0532    -3.1505     3.9151 H       
  60 H60           -8.8685    -4.7924     1.5447 H       
  61 H61           -9.0847    -6.7792     6.0827 H       
  62 H62          -11.8887    -8.6336     5.9369 H       
  63 H63          -10.1102    -8.5705     5.9712 H       
  64 H64          -11.0612    -7.1762     6.5364 H       
  65 H65          -11.6144    -6.0637     0.0595 H       
  66 H66          -10.7933    -4.6626     0.7882 H       
  67 H67           -9.8419    -6.0566     0.2225 H       
@<TRIPOS>BOND
   1    1    2 1
   2    1    6 am
   3    1   16 2
   4    2    3 2
   5    2    7 1
   6    3    4 1
   7    3   17 1
   8    4    5 2
   9    4   41 1
  10    5    6 1
  11    5   42 1
  12    6   10 1
  13    7    8 2
  14    7    9 am
  15    9   20 1
  16    9   43 1
  17   10   11 ar
  18   10   15 ar
  19   11   12 ar
  20   11   44 1
  21   12   13 ar
  22   12   45 1
  23   13   14 ar
  24   13   46 1
  25   14   15 ar
  26   14   47 1
  27   15   48 1
  28   17   18 1
  29   17   19 1
  30   18   49 1
  31   18   50 1
  32   18   51 1
  33   19   52 1
  34   19   53 1
  35   19   54 1
  36   20   21 ar
  37   20   25 ar
  38   21   22 ar
  39   21   55 1
  40   22   23 ar
  41   22   56 1
  42   23   24 ar
  43   23   26 1
  44   24   25 ar
  45   24   57 1
  46   26   30 1
  47   27   28 ar
  48   27   36 ar
  49   28   29 ar
  50   28   58 1
  51   29   30 ar
  52   29   59 1
  53   30   31 ar
  54   31   32 ar
  55   31   36 ar
  56   32   33 ar
  57   32   60 1
  58   33   34 ar
  59   33   39 1
  60   34   35 ar
  61   34   37 1
  62   35   36 ar
  63   35   61 1
  64   37   38 1
  65   38   62 1
  66   38   63 1
  67   38   64 1
  68   39   40 1
  69   40   65 1
  70   40   66 1
  71   40   67 1

#	End of record

