#	Name: ASD03240339
#	Creating user name:	WinNT
#	Creation time:	15. 06. 2019 20:34

#	Modifying user name:	WinNT
#	Modification time:	15. 06. 2019 20:34

#	Program:	/corina/corina34_cracker 3.40 0067  02.08.2006

@<TRIPOS>MOLECULE
ASD03240339
  39   41    0    0    0
SMALL
NO_CHARGES


@<TRIPOS>ATOM
   1 O1            -0.0244     1.5585    -0.0360 O.3     
   2 O2             1.5493    -1.6427    -0.4558 O.3     
   3 O3             3.1133     0.2737     0.3505 O.3     
   4 O4             0.9157     4.2824    -0.3672 O.3     
   5 O5            -4.9061    -1.7511    -1.7555 O.2     
   6 O6            -2.7410     0.7668    -4.1237 O.2     
   7 N7            -1.3632    -0.3882    -0.4076 N.pl3   
   8 N8            -1.6560    -1.5406     1.6256 N.ar    
   9 N9            -3.5397    -2.8181     2.0493 N.ar    
  10 N10           -5.2891    -3.0543     0.4850 N.pl3   
  11 N11           -4.5165    -0.5666    -4.0514 N.am    
  12 C12            1.0760    -0.3536    -0.8509 C.3     
  13 C13           -0.0756     0.1197     0.0722 C.3     
  14 C14            2.1543     0.7298    -0.6057 C.3     
  15 C15            1.3644     1.9293    -0.0473 C.3     
  16 C16            1.5694     3.1509    -0.9454 C.3     
  17 C17           -2.0955    -1.2035     0.4151 C.ar    
  18 C18           -1.7795    -0.0313    -1.6330 C.2     
  19 C19           -3.3390    -1.7057    -0.0083 C.ar    
  20 C20           -2.9800    -0.4602    -2.1560 C.2     
  21 C21           -3.8352    -1.3422    -1.3412 C.2     
  22 C22           -4.0657    -2.5394     0.8577 C.ar    
  23 C23           -3.4005    -0.0458    -3.5038 C.2     
  24 C24           -2.3697    -2.3255     2.4064 C.ar    
  25 H25            0.7606    -0.3600    -1.8943 H       
  26 H26            0.1030    -0.1945     1.1005 H       
  27 H27            2.6466     0.9967    -1.5409 H       
  28 H28            1.6967     2.1523     0.9666 H       
  29 H29            1.1480     2.9522    -1.9308 H       
  30 H30            2.6355     3.3568    -1.0409 H       
  31 H31           -1.1521     0.6146    -2.2293 H       
  32 H32            2.2704    -1.9819    -1.0036 H       
  33 H33            3.8126     0.9135     0.5422 H       
  34 H34            1.0042     5.0946    -0.8844 H       
  35 H35           -1.9795    -2.5769     3.3816 H       
  36 H36           -5.7795    -3.6284     1.0940 H       
  37 H37           -5.6594    -2.8425    -0.3861 H       
  38 H38           -4.8365    -0.2375    -4.9059 H       
  39 H39           -4.9997    -1.2705    -3.5910 H       
@<TRIPOS>BOND
   1    1   13 1
   2    1   15 1
   3    2   32 1
   4    2   12 1
   5    3   33 1
   6    3   14 1
   7    4   16 1
   8    4   34 1
   9    5   21 2
  10    6   23 2
  11    7   17 1
  12    7   18 1
  13    7   13 1
  14    8   17 ar
  15    8   24 ar
  16    9   22 ar
  17    9   24 ar
  18   10   22 1
  19   10   36 1
  20   10   37 1
  21   11   23 am
  22   11   38 1
  23   11   39 1
  24   12   13 1
  25   12   25 1
  26   12   14 1
  27   13   26 1
  28   14   27 1
  29   14   15 1
  30   15   16 1
  31   15   28 1
  32   16   29 1
  33   16   30 1
  34   17   19 ar
  35   18   20 2
  36   18   31 1
  37   19   21 1
  38   19   22 ar
  39   20   21 1
  40   20   23 1
  41   24   35 1

#	End of record

