#	Name: ASD07480007
#	Creating user name:	WinNT
#	Creation time:	15. 06. 2019 21:11

#	Modifying user name:	WinNT
#	Modification time:	15. 06. 2019 21:11

#	Program:	/corina/corina34_cracker 3.40 0067  02.08.2006

@<TRIPOS>MOLECULE
ASD07480007
  47   50    0    0    0
SMALL
NO_CHARGES


@<TRIPOS>ATOM
   1 C1             1.5066    -1.2545    -0.2616 C.2     
   2 C2             0.3545    -0.4615    -0.1163 C.2     
   3 N3             0.4425     0.8491    -0.1025 N.2     
   4 N4             1.6835     1.4798    -0.2321 N.pl3   
   5 C5             2.8199     0.7385    -0.3746 C.2     
   6 C6             2.7267    -0.6661    -0.3896 C.2     
   7 C7             2.0603     2.8040    -0.2509 C.2     
   8 C8             3.4392     2.8185    -0.4073 C.2     
   9 N9             3.8585     1.5663    -0.4776 N.2     
  10 N10           -0.8899    -1.0705     0.0136 N.pl3   
  11 C11           -1.1384    -2.5195     0.0192 C.3     
  12 C12           -2.1768    -0.3696     0.1748 C.3     
  13 C13           -3.2410    -1.3711    -0.3392 C.3     
  14 C14           -2.6617    -2.7227     0.1600 C.3     
  15 C15           -0.4264    -3.1571     1.1844 C.ar    
  16 C16           -0.0254    -4.4850     1.1223 C.ar    
  17 N17            0.5997    -5.0496     2.1417 N.ar    
  18 C18            0.8656    -4.3809     3.2478 C.ar    
  19 C19            0.4961    -3.0548     3.3796 C.ar    
  20 C20           -0.1585    -2.4249     2.3281 C.ar    
  21 F21            0.7725    -2.3782     4.5158 F       
  22 C22            1.1811     3.9656    -0.1308 C.2     
  23 N23           -0.1555     3.7976    -0.0888 N.am    
  24 O24            1.6562     5.0849    -0.0686 O.2     
  25 O25           -0.2781    -5.2113     0.0039 O.3     
  26 C26            0.0571    -6.5999     0.0426 C.3     
  27 O27           -1.0107     4.9261    -0.0707 O.3     
  28 C28           -2.4009     4.6030    -0.1406 C.3     
  29 H29            1.4235    -2.3313    -0.2671 H       
  30 H30            3.6147    -1.2705    -0.5011 H       
  31 H31            4.0616     3.6994    -0.4620 H       
  32 H32           -0.7882    -2.9593    -0.9147 H       
  33 H33           -2.3523    -0.1353     1.2248 H       
  34 H34           -2.1911     0.5403    -0.4253 H       
  35 H35           -4.2135    -1.1736     0.1118 H       
  36 H36           -3.3049    -1.3492    -1.4271 H       
  37 H37           -3.0015    -3.5443    -0.4705 H       
  38 H38           -2.9321    -2.8970     1.2015 H       
  39 H39            1.3776    -4.8753     4.0600 H       
  40 H40           -0.4579    -1.3900     2.4044 H       
  41 H41           -0.5317     2.9037    -0.0710 H       
  42 H42            1.1075    -6.7127     0.3110 H       
  43 H43           -0.5635    -7.1029     0.7841 H       
  44 H44           -0.1171    -7.0431    -0.9379 H       
  45 H45           -2.5869     3.9866    -1.0202 H       
  46 H46           -2.6920     4.0547     0.7554 H       
  47 H47           -2.9842     5.5211    -0.2104 H       
@<TRIPOS>BOND
   1    1    2 1
   2    1    6 2
   3    1   29 1
   4    2    3 2
   5    2   10 1
   6    3    4 1
   7    4    5 1
   8    4    7 1
   9    5    6 1
  10    5    9 2
  11    6   30 1
  12    7    8 2
  13    7   22 1
  14    8    9 1
  15    8   31 1
  16   10   11 1
  17   10   12 1
  18   11   15 1
  19   11   14 1
  20   11   32 1
  21   12   13 1
  22   12   33 1
  23   12   34 1
  24   13   14 1
  25   13   35 1
  26   13   36 1
  27   14   37 1
  28   14   38 1
  29   15   16 ar
  30   15   20 ar
  31   16   17 ar
  32   16   25 1
  33   17   18 ar
  34   18   19 ar
  35   18   39 1
  36   19   20 ar
  37   19   21 1
  38   20   40 1
  39   22   23 am
  40   22   24 2
  41   23   27 1
  42   23   41 1
  43   25   26 1
  44   26   42 1
  45   26   43 1
  46   26   44 1
  47   27   28 1
  48   28   45 1
  49   28   46 1
  50   28   47 1

#	End of record

