#	Name: ASD01940291
#	Creating user name:	WinNT
#	Creation time:	15. 06. 2019 20:12

#	Modifying user name:	WinNT
#	Modification time:	15. 06. 2019 20:12

#	Program:	/corina/corina34_cracker 3.40 0067  02.08.2006

@<TRIPOS>MOLECULE
ASD01940291
  47   49    0    0    0
SMALL
NO_CHARGES


@<TRIPOS>ATOM
   1 C1             0.5719     2.2813    -2.7115 C.3     
   2 C2             0.0883     3.0493    -3.9431 C.3     
   3 C3             1.2520     3.5922    -3.1113 C.3     
   4 S4            -0.4895     2.3030    -1.2406 S.o2    
   5 O5            -1.7491     1.7102    -1.5259 O.2     
   6 O6             0.2506     1.9309    -0.0860 O.2     
   7 N7            -0.8362     3.9050    -1.0048 N.am    
   8 C8             0.1636     4.7801    -0.5537 C.ar    
   9 C9            -0.1644     6.0822    -0.1810 C.ar    
  10 C10            0.8287     6.9443     0.2648 C.ar    
  11 C11            2.1421     6.5087     0.3380 C.ar    
  12 C12            2.4671     5.2151    -0.0328 C.ar    
  13 C13            1.4805     4.3488    -0.4722 C.ar    
  14 N14           -1.4937     6.5208    -0.2564 N.pl3   
  15 C15           -1.7776     7.8896    -0.2853 C.ar    
  16 C16           -1.4055     8.6546    -1.3844 C.ar    
  17 C17           -1.6877    10.0065    -1.4107 C.ar    
  18 C18           -2.3407    10.5995    -0.3429 C.ar    
  19 C19           -2.7118     9.8393     0.7531 C.ar    
  20 C20           -2.4370     8.4858     0.7815 C.ar    
  21 I21           -0.4171     7.7582    -2.9995 I       
  22 F22           -2.6157    11.9219    -0.3707 F       
  23 F23            1.8004     3.0853    -0.8276 F       
  24 F24            3.1076     7.3483     0.7719 F       
  25 F25            0.5146     8.2076     0.6265 F       
  26 C26            1.3464     0.9830    -2.9476 C.3     
  27 C27            1.8561     0.4427    -1.6100 C.3     
  28 C28            2.4202    -0.9653    -1.8104 C.3     
  29 O29            2.7892    -1.5152    -0.5441 O.3     
  30 O30            2.8836     1.3009    -1.1101 O.3     
  31 H31            0.3217     2.6298    -4.9217 H       
  32 H32           -0.8678     3.5677    -3.8696 H       
  33 H33            1.0615     4.4677    -2.4906 H       
  34 H34            2.2511     3.5298    -3.5426 H       
  35 H35           -1.7303     4.2385    -1.1786 H       
  36 H36            3.4920     4.8795     0.0250 H       
  37 H37           -2.2165     5.8747    -0.2885 H       
  38 H38           -1.3985    10.6016    -2.2642 H       
  39 H39           -3.2203    10.3041     1.5848 H       
  40 H40           -2.7307     7.8925     1.6349 H       
  41 H41            0.6889     0.2468    -3.4101 H       
  42 H42            2.1923     1.1793    -3.6063 H       
  43 H43            1.0336     0.4064    -0.8957 H       
  44 H44            1.6631    -1.5974    -2.2743 H       
  45 H45            3.2978    -0.9167    -2.4551 H       
  46 H46            3.1556    -2.4087    -0.5951 H       
  47 H47            3.6488     1.3808    -1.6958 H       
@<TRIPOS>BOND
   1    1    2 1
   2    1    3 1
   3    1    4 1
   4    1   26 1
   5    2    3 1
   6    2   31 1
   7    2   32 1
   8    3   33 1
   9    3   34 1
  10    4    5 2
  11    4    6 2
  12    4    7 am
  13    7    8 1
  14    7   35 1
  15    8    9 ar
  16    8   13 ar
  17    9   10 ar
  18    9   14 1
  19   10   11 ar
  20   10   25 1
  21   11   12 ar
  22   11   24 1
  23   12   13 ar
  24   12   36 1
  25   13   23 1
  26   14   15 1
  27   14   37 1
  28   15   16 ar
  29   15   20 ar
  30   16   17 ar
  31   16   21 1
  32   17   18 ar
  33   17   38 1
  34   18   19 ar
  35   18   22 1
  36   19   20 ar
  37   19   39 1
  38   20   40 1
  39   26   27 1
  40   26   41 1
  41   26   42 1
  42   27   28 1
  43   27   30 1
  44   27   43 1
  45   28   29 1
  46   28   44 1
  47   28   45 1
  48   29   46 1
  49   30   47 1

#	End of record

