#	Name: ASD01410790
#	Creating user name:	WinNT
#	Creation time:	15. 06. 2019 19:18

#	Modifying user name:	WinNT
#	Modification time:	15. 06. 2019 19:18

#	Program:	/corina/corina34_cracker 3.40 0067  02.08.2006

@<TRIPOS>MOLECULE
ASD01410790
  31   32    0    0    0
SMALL
NO_CHARGES


@<TRIPOS>ATOM
   1 N1            -0.0158     1.3118     0.0093 N.ar    
   2 C2             0.0021    -0.0041     0.0020 C.ar    
   3 C3             1.2033    -0.7207    -0.0133 C.ar    
   4 C4             2.3940    -0.0530    -0.0210 C.ar    
   5 C5             2.3691     1.3571    -0.0132 C.ar    
   6 C6             3.5569     2.1046    -0.0209 C.ar    
   7 C7             3.5018     3.4642    -0.0136 C.ar    
   8 C8             2.2731     4.1304     0.0021 C.ar    
   9 C9             1.0903     3.4259     0.0100 C.ar    
  10 C10            1.1186     2.0226     0.0022 C.ar    
  11 C11           -0.2273     4.1573     0.0264 C.3     
  12 O12            2.2457     5.4885     0.0100 O.3     
  13 C13            3.5056     6.1628     0.0016 C.3     
  14 O14           -1.1722    -0.6816     0.0100 O.3     
  15 C15           -2.3704     0.0971     0.0261 C.3     
  16 C16           -3.5840    -0.8345     0.0332 C.3     
  17 Cl17           3.8995    -0.9172    -0.0395 Cl      
  18 H18            1.1888    -1.8006    -0.0186 H       
  19 H19            4.5127     1.6018    -0.0323 H       
  20 H20            4.4184     4.0353    -0.0196 H       
  21 H21           -0.5549     4.3387    -0.9973 H       
  22 H22           -0.9718     3.5529     0.5444 H       
  23 H23           -0.1080     5.1092     0.5438 H       
  24 H24            4.0770     5.8762     0.8845 H       
  25 H25            4.0597     5.8862    -0.8954 H       
  26 H26            3.3411     7.2403     0.0093 H       
  27 H27           -2.3861     0.7212     0.9196 H       
  28 H28           -2.4038     0.7307    -0.8602 H       
  29 H29           -3.5682    -1.4585    -0.8604 H       
  30 H30           -3.5506    -1.4681     0.9195 H       
  31 H31           -4.4979    -0.2406     0.0454 H       
@<TRIPOS>BOND
   1    1    2 ar
   2    1   10 ar
   3    2    3 ar
   4    2   14 1
   5    3    4 ar
   6    3   18 1
   7    4    5 ar
   8    4   17 1
   9    5    6 ar
  10    5   10 ar
  11    6    7 ar
  12    6   19 1
  13    7    8 ar
  14    7   20 1
  15    8    9 ar
  16    8   12 1
  17    9   10 ar
  18    9   11 1
  19   11   21 1
  20   11   22 1
  21   11   23 1
  22   12   13 1
  23   13   24 1
  24   13   25 1
  25   13   26 1
  26   14   15 1
  27   15   16 1
  28   15   27 1
  29   15   28 1
  30   16   29 1
  31   16   30 1
  32   16   31 1

#	End of record

