#	Name: ASD00451034
#	Creating user name:	WinNT
#	Creation time:	15. 06. 2019 18:36

#	Modifying user name:	WinNT
#	Modification time:	15. 06. 2019 18:36

#	Program:	/corina/corina34_cracker 3.40 0067  02.08.2006

@<TRIPOS>MOLECULE
ASD00451034
  60   64    0    0    0
SMALL
NO_CHARGES


@<TRIPOS>ATOM
   1 C1             0.0435     1.2744     0.1034 C.ar    
   2 C2            -0.0159    -0.1007     0.0589 C.ar    
   3 C3             1.2953     1.9218     0.0389 C.ar    
   4 N4            -1.1320     2.0258     0.2061 N.am    
   5 C5             1.1446    -0.8618    -0.0485 C.ar    
   6 C6             1.3927     3.3219     0.0820 C.ar    
   7 C7             2.4754     1.1464    -0.0709 C.ar    
   8 C8             2.3801    -0.2596    -0.1130 C.ar    
   9 C9             2.6165     3.9149     0.0180 C.ar    
  10 C10            3.7208     1.7928    -0.1345 C.ar    
  11 O11            3.5036    -1.0168    -0.2169 O.3     
  12 C12            3.7777     3.1522    -0.0900 C.ar    
  13 C13            4.2235    -1.2473     0.9111 C.ar    
  14 C14            5.4428    -1.9183     0.8578 C.ar    
  15 C15            3.7661    -0.8142     2.1538 C.ar    
  16 C16            6.1546    -2.1371     2.0375 C.ar    
  17 N17            6.1909    -2.4738    -0.1782 N.am    
  18 C18            4.5262    -1.0674     3.2779 C.ar    
  19 N19            7.3126    -2.8181     1.6836 N.am    
  20 N20            5.6758    -1.7101     3.1963 N.ar    
  21 C21            7.3089    -3.0067     0.3509 C.2     
  22 C22            8.3624    -3.2571     2.6064 C.3     
  23 O23            8.1824    -3.5725    -0.2797 O.2     
  24 C24           -2.2609     1.5962    -0.3917 C.2     
  25 O25           -2.2344     0.6116    -1.1048 O.2     
  26 N26           -3.4192     2.2578    -0.1992 N.am    
  27 C27           -4.6079     1.7607    -0.7450 C.ar    
  28 C28            5.8246    -2.4778    -1.5967 C.3     
  29 C29           -5.8046     1.9076    -0.0562 C.ar    
  30 C30           -6.9763     1.4158    -0.5977 C.ar    
  31 C31           -6.9584     0.7773    -1.8239 C.ar    
  32 C32           -5.7681     0.6293    -2.5125 C.ar    
  33 C33           -4.5943     1.1243    -1.9794 C.ar    
  34 C34           -5.7530    -0.0677    -3.8485 C.3     
  35 F35           -7.0511    -0.4722    -4.1781 F       
  36 F36           -5.2756     0.8105    -4.8273 F       
  37 F37           -4.9185    -1.1884    -3.7804 F       
  38 C38            6.3811    -1.2220    -2.2707 C.3     
  39 H39           -0.9750    -0.5949     0.1084 H       
  40 H40           -1.1346     2.8561     0.7076 H       
  41 H41            1.0744    -1.9390    -0.0813 H       
  42 H42            0.5009     3.9255     0.1652 H       
  43 H43            2.6884     4.9920     0.0510 H       
  44 H44            4.6288     1.2141    -0.2180 H       
  45 H45            4.7366     3.6466    -0.1391 H       
  46 H46            2.8277    -0.2861     2.2366 H       
  47 H47            4.1738    -0.7323     4.2422 H       
  48 H48            8.1353    -4.2615     2.9638 H       
  49 H49            9.3216    -3.2638     2.0889 H       
  50 H50            8.4112    -2.5726     3.4533 H       
  51 H51           -3.4288     3.0785     0.3177 H       
  52 H52            6.2415    -3.3630    -2.0770 H       
  53 H53            4.7388    -2.4902    -1.6916 H       
  54 H54           -5.8191     2.4056     0.9020 H       
  55 H55           -7.9074     1.5297    -0.0625 H       
  56 H56           -7.8757     0.3930    -2.2448 H       
  57 H57           -3.6651     1.0084    -2.5176 H       
  58 H58            5.9643    -0.3368    -1.7903 H       
  59 H59            7.4669    -1.2096    -2.1758 H       
  60 H60            6.1087    -1.2251    -3.3261 H       
@<TRIPOS>BOND
   1    1    2 ar
   2    1    3 ar
   3    1    4 1
   4    2    5 ar
   5    2   39 1
   6    3    6 ar
   7    3    7 ar
   8    4   24 am
   9    4   40 1
  10    5    8 ar
  11    5   41 1
  12    6    9 ar
  13    6   42 1
  14    7    8 ar
  15    7   10 ar
  16    8   11 1
  17    9   12 ar
  18    9   43 1
  19   10   12 ar
  20   10   44 1
  21   11   13 1
  22   12   45 1
  23   13   15 ar
  24   13   14 ar
  25   14   16 ar
  26   14   17 1
  27   15   18 ar
  28   15   46 1
  29   16   19 1
  30   16   20 ar
  31   17   21 am
  32   17   28 1
  33   18   20 ar
  34   18   47 1
  35   19   22 1
  36   19   21 am
  37   21   23 2
  38   22   48 1
  39   22   49 1
  40   22   50 1
  41   24   25 2
  42   24   26 am
  43   26   27 1
  44   26   51 1
  45   27   29 ar
  46   27   33 ar
  47   28   38 1
  48   28   52 1
  49   28   53 1
  50   29   30 ar
  51   29   54 1
  52   30   31 ar
  53   30   55 1
  54   31   32 ar
  55   31   56 1
  56   32   33 ar
  57   32   34 1
  58   33   57 1
  59   34   35 1
  60   34   36 1
  61   34   37 1
  62   38   58 1
  63   38   59 1
  64   38   60 1

#	End of record

