#	Name: ASD00990092
#	Creating user name:	WinNT
#	Creation time:	15. 06. 2019 18:54

#	Modifying user name:	WinNT
#	Modification time:	15. 06. 2019 18:54

#	Program:	/corina/corina34_cracker 3.40 0067  02.08.2006

@<TRIPOS>MOLECULE
ASD00990092
  43   45    0    0    0
SMALL
NO_CHARGES


@<TRIPOS>ATOM
   1 C1            -0.0167     1.3769     0.0096 C.ar    
   2 C2             0.0021    -0.0041     0.0020 C.ar    
   3 C3             1.2125    -0.6793    -0.0132 C.ar    
   4 C4             2.4067     0.0410    -0.0208 C.ar    
   5 C5             2.3813     1.4268    -0.0138 C.ar    
   6 C6             1.1697     2.0919     0.0021 C.ar    
   7 N7             3.4381    -0.8976    -0.0357 N.am    
   8 C8             4.8739    -0.6067    -0.0475 C.3     
   9 C9             5.3795    -0.5150     1.3692 C.2     
  10 N10            6.6805    -0.2534     1.6048 N.am    
  11 C11            7.1720    -0.1642     2.9820 C.3     
  12 O12            4.6157    -0.6767     2.2973 O.2     
  13 C13            7.6031    -0.0581     0.4837 C.3     
  14 C14            7.6225    -1.5262     3.4438 C.2     
  15 N15            8.9030    -1.9834     3.3903 N.pl3   
  16 C16            8.9031    -3.2657     3.9033 C.ar    
  17 C17            7.5723    -3.5407     4.2590 C.ar    
  18 N18            6.8448    -2.4341     3.9568 N.2     
  19 C19            9.8872    -4.2238     4.1054 C.ar    
  20 C20            9.5540    -5.4446     4.6558 C.ar    
  21 C21            8.2374    -5.7214     5.0091 C.ar    
  22 C22            7.2503    -4.7818     4.8155 C.ar    
  23 Cl23           7.8364    -7.2628     5.6997 Cl      
  24 Cl24           1.1347     3.8276     0.0104 Cl      
  25 F25           10.5121    -6.3766     4.8522 F       
  26 O26            1.5364    -1.9958    -0.0234 O.3     
  27 C27            2.8727    -2.1210    -0.0369 C.2     
  28 O28            3.4792    -3.1749    -0.0490 O.2     
  29 H29           -0.9606     1.9017     0.0169 H       
  30 H30           -0.9255    -0.5573     0.0083 H       
  31 H31            3.3056     1.9853    -0.0193 H       
  32 H32            5.4018    -1.4040    -0.5708 H       
  33 H33            5.0486     0.3405    -0.5576 H       
  34 H34            8.0115     0.5297     3.0240 H       
  35 H35            6.3723     0.1932     3.6308 H       
  36 H36            7.6280     0.9975     0.2133 H       
  37 H37            8.6023    -0.3823     0.7747 H       
  38 H38            7.2655    -0.6443    -0.3710 H       
  39 H39            9.6730    -1.4987     3.0537 H       
  40 H40           10.9109    -4.0144     3.8322 H       
  41 H41            6.2299    -5.0032     5.0917 H       
  42 Cl42          15.9109     8.8276    10.6997 Cl      
  43 H43           15.9109    10.1976    10.6997 H       
@<TRIPOS>BOND
   1    1    2 ar
   2    1    6 ar
   3    1   29 1
   4    2    3 ar
   5    2   30 1
   6    3    4 ar
   7    3   26 1
   8    4    5 ar
   9    4    7 1
  10    5    6 ar
  11    5   31 1
  12    6   24 1
  13    7    8 1
  14    7   27 am
  15    8    9 1
  16    8   32 1
  17    8   33 1
  18    9   10 am
  19    9   12 2
  20   10   11 1
  21   10   13 1
  22   11   14 1
  23   11   34 1
  24   11   35 1
  25   13   36 1
  26   13   37 1
  27   13   38 1
  28   14   15 1
  29   14   18 2
  30   15   16 1
  31   15   39 1
  32   16   17 ar
  33   16   19 ar
  34   17   18 1
  35   17   22 ar
  36   19   20 ar
  37   19   40 1
  38   20   21 ar
  39   20   25 1
  40   21   22 ar
  41   21   23 1
  42   22   41 1
  43   26   27 1
  44   27   28 2
  45   42   43 1

#	End of record

