#	Name: ASD09740084
#	Creating user name:	WinNT
#	Creation time:	15. 06. 2019 21:22

#	Modifying user name:	WinNT
#	Modification time:	15. 06. 2019 21:22

#	Program:	/corina/corina34_cracker 3.40 0067  02.08.2006

@<TRIPOS>MOLECULE
ASD09740084
  32   35    0    0    0
SMALL
NO_CHARGES


@<TRIPOS>ATOM
   1 O1             0.2597     1.1287     0.7282 O.3     
   2 N2             0.1873    -0.0580     0.4892 N.2     
   3 C3             1.2419     1.6825    -0.0008 C.2     
   4 N4             1.7762     0.7131    -0.7219 N.2     
   5 C5             1.0877    -0.4000    -0.3961 C.2     
   6 C6             1.3107    -1.7630    -0.9419 C.ar    
   7 C7             1.6463     3.1009     0.0026 C.ar    
   8 C8             0.5271    -2.8408    -0.5227 C.ar    
   9 C9             2.3061    -2.0011    -1.8927 C.ar    
  10 C10            2.4799    -3.2832    -2.3739 C.ar    
  11 N11            1.7215    -4.2746    -1.9480 N.ar    
  12 C12            0.7679    -4.0913    -1.0555 C.ar    
  13 C13            2.9858     3.4480     0.0955 C.ar    
  14 C14            3.3731     4.7821     0.0996 C.ar    
  15 C15            2.4534     5.7839     0.0126 C.ar    
  16 C16            1.0848     5.4786    -0.0833 C.ar    
  17 C17            0.6709     4.1244    -0.0950 C.ar    
  18 C18           -0.6941     3.8214    -0.1911 C.ar    
  19 C19           -1.6054     4.8310    -0.2720 C.ar    
  20 C20           -1.2004     6.1638    -0.2611 C.ar    
  21 C21            0.1173     6.4945    -0.1737 C.ar    
  22 H22           -0.2555    -2.6978     0.2077 H       
  23 H23            2.9302    -1.1938    -2.2464 H       
  24 H24            3.2468    -3.4770    -3.1092 H       
  25 H25            0.1700    -4.9314    -0.7344 H       
  26 H26            3.7352     2.6734     0.1656 H       
  27 H27            4.4217     5.0297     0.1735 H       
  28 H28            2.7767     6.8144     0.0177 H       
  29 H29           -1.0220     2.7924    -0.2014 H       
  30 H30           -2.6566     4.5946    -0.3460 H       
  31 H31           -1.9422     6.9460    -0.3271 H       
  32 H32            0.4172     7.5320    -0.1659 H       
@<TRIPOS>BOND
   1    1    2 1
   2    1    3 1
   3    2    5 2
   4    3    4 2
   5    3    7 1
   6    4    5 1
   7    5    6 1
   8    6    8 ar
   9    6    9 ar
  10    7   13 ar
  11    7   17 ar
  12    8   12 ar
  13    8   22 1
  14    9   10 ar
  15    9   23 1
  16   10   11 ar
  17   10   24 1
  18   11   12 ar
  19   12   25 1
  20   13   14 ar
  21   13   26 1
  22   14   15 ar
  23   14   27 1
  24   15   16 ar
  25   15   28 1
  26   16   17 ar
  27   16   21 ar
  28   17   18 ar
  29   18   19 ar
  30   18   29 1
  31   19   20 ar
  32   19   30 1
  33   20   21 ar
  34   20   31 1
  35   21   32 1

#	End of record

