#	Name: ASD01881174
#	Creating user name:	WinNT
#	Creation time:	15. 06. 2019 19:42

#	Modifying user name:	WinNT
#	Modification time:	15. 06. 2019 19:42

#	Program:	/corina/corina34_cracker 3.40 0067  02.08.2006

@<TRIPOS>MOLECULE
ASD01881174
  47   49    0    0    0
SMALL
NO_CHARGES


@<TRIPOS>ATOM
   1 Cl1            8.0464     4.6080     0.7367 Cl      
   2 N2            -0.0158     1.3136     0.0093 N.ar    
   3 C3             0.0021    -0.0041     0.0020 C.ar    
   4 N4             1.1320    -0.6826    -0.0120 N.ar    
   5 C5             2.2987    -0.0578    -0.0198 C.ar    
   6 C6             2.3217     1.3274    -0.0130 C.ar    
   7 C7             1.1124     2.0071     0.0022 C.ar    
   8 C8             3.6286     2.0776    -0.0209 C.3     
   9 O9             4.0296     2.3216    -1.3707 O.3     
  10 C10            5.1949     2.9922    -1.5556 C.ar    
  11 C11            5.6438     3.2631    -2.8449 C.ar    
  12 C12            6.8220     3.9417    -3.0317 C.ar    
  13 C13            7.5775     4.3647    -1.9327 C.ar    
  14 C14            7.1219     4.0908    -0.6386 C.ar    
  15 C15            5.9350     3.4125    -0.4578 C.ar    
  16 C16            7.5742     4.3862    -4.2614 C.3     
  17 N17            8.7780     5.0728    -3.7791 N.am    
  18 C18            8.7754     5.0578    -2.4351 C.2     
  19 O19            9.6399     5.5470    -1.7337 O.2     
  20 Br20           1.0755     3.8977     0.0121 Br      
  21 C21           -1.7602    -1.0017    -1.4291 C.3     
  22 C22           -1.3044    -0.7552     0.0105 C.3     
  23 C23            9.4536     7.1365    -4.9044 C.3     
  24 C24            9.8122     5.6759    -4.6235 C.3     
  25 C25            4.0071    -1.1016    -1.4829 C.3     
  26 C26            3.5851    -0.8427    -0.0353 C.3     
  27 H27            3.5053     3.0278     0.4988 H       
  28 H28            4.3914     1.4841     0.4831 H       
  29 H29            5.0657     2.9391    -3.6977 H       
  30 H30            5.5831     3.2010     0.5411 H       
  31 H31            7.8521     3.5212    -4.8637 H       
  32 H32            6.9619     5.0709    -4.8481 H       
  33 H33           -2.7052    -1.5450    -1.4230 H       
  34 H34           -1.8937    -0.0463    -1.9366 H       
  35 H35           -1.0066    -1.5893    -1.9533 H       
  36 H36           -1.1709    -1.7106     0.5179 H       
  37 H37           -2.0580    -0.1675     0.5347 H       
  38 H38           10.2230     7.5851    -5.5326 H       
  39 H39            8.4930     7.1825    -5.4175 H       
  40 H40            9.3892     7.6823    -3.9631 H       
  41 H41           10.7727     5.6298    -4.1103 H       
  42 H42            9.8766     5.1300    -5.5648 H       
  43 H43            4.9376    -1.6693    -1.4941 H       
  44 H44            3.2287    -1.6696    -1.9923 H       
  45 H45            4.1558    -0.1502    -1.9937 H       
  46 H46            4.3635    -0.2747     0.4741 H       
  47 H47            3.4364    -1.7941     0.4755 H       
@<TRIPOS>BOND
   1    1   14 1
   2    2    3 ar
   3    2    7 ar
   4    3    4 ar
   5    3   22 1
   6    4    5 ar
   7    5    6 ar
   8    5   26 1
   9    6    7 ar
  10    6    8 1
  11    7   20 1
  12    8    9 1
  13    8   27 1
  14    8   28 1
  15    9   10 1
  16   10   11 ar
  17   10   15 ar
  18   11   12 ar
  19   11   29 1
  20   12   13 ar
  21   12   16 1
  22   13   14 ar
  23   13   18 1
  24   14   15 ar
  25   15   30 1
  26   16   17 1
  27   16   31 1
  28   16   32 1
  29   17   18 am
  30   17   24 1
  31   18   19 2
  32   21   22 1
  33   21   33 1
  34   21   34 1
  35   21   35 1
  36   22   36 1
  37   22   37 1
  38   23   24 1
  39   23   38 1
  40   23   39 1
  41   23   40 1
  42   24   41 1
  43   24   42 1
  44   25   26 1
  45   25   43 1
  46   25   44 1
  47   25   45 1
  48   26   46 1
  49   26   47 1

#	End of record

