#	Name: ASD01410110
#	Creating user name:	WinNT
#	Creation time:	15. 06. 2019 19:16

#	Modifying user name:	WinNT
#	Modification time:	15. 06. 2019 19:16

#	Program:	/corina/corina34_cracker 3.40 0067  02.08.2006

@<TRIPOS>MOLECULE
ASD01410110
  61   64    0    0    0
SMALL
NO_CHARGES


@<TRIPOS>ATOM
   1 C1            -0.0169     1.3986     0.0097 C.ar    
   2 C2             0.0021    -0.0041     0.0020 C.ar    
   3 C3            -1.1621    -0.7093     0.0093 C.ar    
   4 C4            -2.3913    -0.0345     0.0242 C.ar    
   5 C5            -2.4204     1.3754     0.0321 C.ar    
   6 C6            -1.2309     2.0852     0.0308 C.ar    
   7 C7            -3.7373    -0.4719     0.0342 C.2     
   8 C8            -4.5320     0.6288     0.0474 C.2     
   9 N9            -3.7469     1.7571     0.0463 N.pl3   
  10 C10           -6.0101     0.6159     0.0601 C.ar    
  11 C11           -6.7212     1.4584     0.9249 C.ar    
  12 N12           -8.0351    -0.2447    -0.7833 N.ar    
  13 C13           -6.7179    -0.2310    -0.7925 C.ar    
  14 C14           -4.2052    -1.9045     0.0307 C.3     
  15 C15           -3.6888    -2.6066    -1.2268 C.3     
  16 C16           -4.1638    -4.0610    -1.2303 C.3     
  17 C17           -3.6256    -4.7762     0.0106 C.3     
  18 C18           -4.1420    -4.0741     1.2681 C.3     
  19 C19           -3.6670    -2.6197     1.2716 C.3     
  20 C20            1.2510     2.1499     0.0017 C.2     
  21 O21            2.4256     1.4892    -0.0131 O.3     
  22 C22           -4.2373     3.1375     0.0587 C.3     
  23 C23           -4.3920     3.6029     1.4836 C.2     
  24 N24           -4.8332     4.8501     1.7411 N.am    
  25 O25            1.2374     3.3650     0.0083 O.2     
  26 O26           -4.1195     2.8551     2.3988 O.2     
  27 C27           -8.1012     1.4100     0.9001 C.ar    
  28 C28           -8.7350     0.5346     0.0257 C.ar    
  29 C29           -4.9836     5.3025     3.1264 C.3     
  30 C30           -5.1625     5.7534     0.6357 C.3     
  31 O31          -10.0900     0.4831    -0.0034 O.3     
  32 C32          -10.6848    -0.4356    -0.9223 C.3     
  33 H33            0.9465    -0.5278    -0.0102 H       
  34 H34           -1.1391    -1.7890     0.0033 H       
  35 H35           -1.2434     3.1651     0.0371 H       
  36 H36           -6.2029     2.1287     1.5945 H       
  37 H37           -6.1809    -0.8815    -1.4669 H       
  38 H38           -5.2948    -1.9308     0.0401 H       
  39 H39           -4.0722    -2.0970    -2.1108 H       
  40 H40           -2.5992    -2.5802    -1.2362 H       
  41 H41           -5.2535    -4.0874    -1.2209 H       
  42 H42           -3.7960    -4.5612    -2.1262 H       
  43 H43           -3.9640    -5.8124     0.0081 H       
  44 H44           -2.5360    -4.7499     0.0012 H       
  45 H45           -5.2316    -4.1005     1.2775 H       
  46 H46           -3.7585    -4.5837     2.1521 H       
  47 H47           -2.5773    -2.5933     1.2622 H       
  48 H48           -4.0348    -2.1195     2.1675 H       
  49 H49            3.2306     2.0250    -0.0179 H       
  50 H50           -3.5252     3.7808    -0.4583 H       
  51 H51           -5.2024     3.1848    -0.4458 H       
  52 H52           -8.6816     2.0450     1.5531 H       
  53 H53           -4.0526     5.7588     3.4627 H       
  54 H54           -5.7888     6.0350     3.1840 H       
  55 H55           -5.2214     4.4504     3.7631 H       
  56 H56           -6.2124     5.6334     0.3688 H       
  57 H57           -4.9809     6.7836     0.9419 H       
  58 H58           -4.5390     5.5153    -0.2261 H       
  59 H59          -11.7703    -0.3764    -0.8440 H       
  60 H60          -10.3794    -0.1828    -1.9377 H       
  61 H61          -10.3581    -1.4483    -0.6862 H       
@<TRIPOS>BOND
   1    1    2 ar
   2    1   20 1
   3    1    6 ar
   4    2    3 ar
   5    2   33 1
   6    3    4 ar
   7    3   34 1
   8    4    5 ar
   9    4    7 1
  10    5    6 ar
  11    5    9 1
  12    6   35 1
  13    7    8 2
  14    7   14 1
  15    8    9 1
  16    8   10 1
  17    9   22 1
  18   10   11 ar
  19   10   13 ar
  20   11   27 ar
  21   11   36 1
  22   12   13 ar
  23   12   28 ar
  24   13   37 1
  25   14   15 1
  26   14   19 1
  27   14   38 1
  28   15   16 1
  29   15   39 1
  30   15   40 1
  31   16   17 1
  32   16   41 1
  33   16   42 1
  34   17   18 1
  35   17   43 1
  36   17   44 1
  37   18   19 1
  38   18   45 1
  39   18   46 1
  40   19   47 1
  41   19   48 1
  42   20   21 1
  43   20   25 2
  44   21   49 1
  45   22   23 1
  46   22   50 1
  47   22   51 1
  48   23   24 am
  49   23   26 2
  50   24   29 1
  51   24   30 1
  52   27   28 ar
  53   27   52 1
  54   28   31 1
  55   29   53 1
  56   29   54 1
  57   29   55 1
  58   30   56 1
  59   30   57 1
  60   30   58 1
  61   31   32 1
  62   32   59 1
  63   32   60 1
  64   32   61 1

#	End of record

