#	Name: ASD01202022
#	Creating user name:	WinNT
#	Creation time:	15. 06. 2019 19:09

#	Modifying user name:	WinNT
#	Modification time:	15. 06. 2019 19:09

#	Program:	/corina/corina34_cracker 3.40 0067  02.08.2006

@<TRIPOS>MOLECULE
ASD01202022
  44   47    0    0    0
SMALL
NO_CHARGES


@<TRIPOS>ATOM
   1 C1             0.6577     1.5806    -0.5010 C.2     
   2 C2             0.4830     0.2054    -0.3585 C.2     
   3 C3             1.9632     1.9705    -0.5702 C.2     
   4 C4            -0.4669     2.5279    -0.5763 C.2     
   5 C5             1.6381    -0.4835    -0.3157 C.2     
   6 C6             2.4264     3.3963    -0.7238 C.3     
   7 S7             2.9983     0.6191    -0.4580 S.3     
   8 O8            -0.2518     3.7185    -0.7012 O.2     
   9 N9            -1.7347     2.0758    -0.5069 N.am    
  10 C10            1.7461    -1.9466    -0.1714 C.ar    
  11 C11           -2.7957     2.9696    -0.5780 C.2     
  12 S12           -2.6394     4.6600    -0.7601 S.3     
  13 N13           -4.0416     2.6425    -0.5217 N.2     
  14 C14           -4.3963     4.8362    -0.7411 C.2     
  15 C15           -4.9450     3.6249    -0.6049 C.2     
  16 H16           -1.9062     1.1263    -0.4073 H       
  17 C17            2.4738    -2.5037     0.9026 C.ar    
  18 C18            2.5652    -3.8945     1.0240 C.ar    
  19 C19            1.9479    -4.7077     0.0996 C.ar    
  20 C20            1.2336    -4.1591    -0.9553 C.ar    
  21 C21            1.1251    -2.7915    -1.0919 C.ar    
  22 C22            3.1289    -1.6314     1.8829 C.2     
  23 C23           -6.4662     3.7485    -0.5831 C.3     
  24 C24           -6.7635     5.1441    -1.1676 C.3     
  25 C25           -5.4666     5.9081    -0.8329 C.3     
  26 C26            4.0235    -2.2249     2.9405 C.3     
  27 O27            2.9508    -0.4320     1.8423 O.2     
  28 H28           -0.4876    -0.2632    -0.2891 H       
  29 H29            2.5617     3.8425     0.2614 H       
  30 H30            3.3730     3.4146    -1.2641 H       
  31 H31            1.6796     3.9629    -1.2800 H       
  32 H32            3.1199    -4.3302     1.8419 H       
  33 H33            2.0207    -5.7809     0.1967 H       
  34 H34            0.7548    -4.8086    -1.6731 H       
  35 H35            0.5668    -2.3739    -1.9167 H       
  36 H36           -6.9178     2.9743    -1.2033 H       
  37 H37           -6.8369     3.6796     0.4396 H       
  38 H38           -6.9157     5.0914    -2.2456 H       
  39 H39           -7.6236     5.5982    -0.6754 H       
  40 H40           -5.5656     6.4237     0.1223 H       
  41 H41           -5.2291     6.6179    -1.6253 H       
  42 H42            4.0612    -3.3074     2.8188 H       
  43 H43            5.0276    -1.8127     2.8403 H       
  44 H44            3.6286    -1.9838     3.9275 H       
@<TRIPOS>BOND
   1    1    2 1
   2    1    3 2
   3    1    4 1
   4    2    5 2
   5    2   28 1
   6    3    6 1
   7    3    7 1
   8    4    8 2
   9    4    9 am
  10    5   10 1
  11    5    7 1
  12    6   29 1
  13    6   30 1
  14    6   31 1
  15    9   16 1
  16    9   11 1
  17   10   17 ar
  18   10   21 ar
  19   11   13 2
  20   11   12 1
  21   12   14 1
  22   13   15 1
  23   14   15 2
  24   14   25 1
  25   15   23 1
  26   17   18 ar
  27   17   22 1
  28   18   19 ar
  29   18   32 1
  30   19   20 ar
  31   19   33 1
  32   20   21 ar
  33   20   34 1
  34   21   35 1
  35   22   26 1
  36   22   27 2
  37   23   24 1
  38   23   36 1
  39   23   37 1
  40   24   25 1
  41   24   38 1
  42   24   39 1
  43   25   40 1
  44   25   41 1
  45   26   42 1
  46   26   43 1
  47   26   44 1

#	End of record

