#	Name: ASD04881210
#	Creating user name:	WinNT
#	Creation time:	15. 06. 2019 20:53

#	Modifying user name:	WinNT
#	Modification time:	15. 06. 2019 20:53

#	Program:	/corina/corina34_cracker 3.40 0067  02.08.2006

@<TRIPOS>MOLECULE
ASD04881210
  73   77    0    0    0
SMALL
NO_CHARGES


@<TRIPOS>ATOM
   1 C1            -0.4558     2.3494     3.1227 C.ar    
   2 C2            -0.7181     1.3707     2.1813 C.ar    
   3 C3             0.2286     1.0564     1.2239 C.ar    
   4 C4             1.4401     1.7195     1.2046 C.ar    
   5 C5             1.7068     2.7029     2.1485 C.ar    
   6 C6             0.7533     3.0162     3.1092 C.ar    
   7 N7             2.9311     3.3751     2.1322 N.3     
   8 C8             3.0838     4.1614     0.9001 C.3     
   9 C9             4.3984     4.9431     0.9567 C.3     
  10 N10            5.5169     4.0042     1.1208 N.3     
  11 C11            5.3642     3.2178     2.3528 C.3     
  12 C12            4.0496     2.4361     2.2963 C.3     
  13 C13            6.7375     4.6743     1.1045 C.ar    
  14 C14            7.1751     5.2993    -0.0669 C.ar    
  15 C15            8.3861     5.9646    -0.0826 C.ar    
  16 C16            9.1701     6.0103     1.0741 C.ar    
  17 C17            8.7266     5.3835     2.2415 C.ar    
  18 C18            7.5162     4.7258     2.2545 C.ar    
  19 C19            1.0381     4.0828     4.1350 C.3     
  20 N20            6.3869     5.2508    -1.2240 N.am    
  21 C21            6.4802     6.2307    -2.1446 C.2     
  22 C22            5.5899     6.2294    -3.3097 C.2     
  23 O23            7.3035     7.1168    -2.0089 O.2     
  24 C24            5.5783     7.1569    -4.3119 C.2     
  25 C25            4.5746     6.7660    -5.2119 C.2     
  26 C26            4.0245     5.6315    -4.7259 C.2     
  27 O27            4.6425     5.3084    -3.5824 O.3     
  28 C28           10.4639     6.7190     1.0619 C.2     
  29 O29           10.8492     7.2639     0.0454 O.2     
  30 N30           11.2189     6.7626     2.1775 N.am    
  31 C31           12.5037     7.4663     2.1655 C.3     
  32 C32           13.1537     7.3651     3.5469 C.3     
  33 C33           14.4955     8.1000     3.5343 C.3     
  34 N34           15.1179     8.0031     4.8570 N.am    
  35 C35           15.9495     7.0310     5.2540 C.2     
  36 N36           16.3844     7.1692     6.5134 N.am    
  37 C37           15.7979     8.3852     7.0963 C.3     
  38 C38           14.9337     8.9608     5.9575 C.3     
  39 O39           16.2795     6.1066     4.5364 O.2     
  40 H40           -1.1992     2.5955     3.8665 H       
  41 H41           -1.6645     0.8504     2.1944 H       
  42 H42            0.0206     0.2914     0.4905 H       
  43 H43            2.1793     1.4733     0.4567 H       
  44 H44            3.0957     3.4916     0.0403 H       
  45 H45            2.2503     4.8578     0.8075 H       
  46 H46            4.5277     5.5046     0.0314 H       
  47 H47            4.3755     5.6325     1.8006 H       
  48 H48            6.1977     2.5215     2.4454 H       
  49 H49            5.3523     3.8877     3.2126 H       
  50 H50            3.9203     1.8746     3.2216 H       
  51 H51            4.0725     1.7467     1.4523 H       
  52 H52            8.7264     6.4479    -0.9865 H       
  53 H53            9.3316     5.4179     3.1355 H       
  54 H54            7.1735     4.2458     3.1592 H       
  55 H55            1.4244     3.6198     5.0429 H       
  56 H56            1.7774     4.7792     3.7393 H       
  57 H57            0.1184     4.6209     4.3645 H       
  58 H58            5.7739     4.5119    -1.3626 H       
  59 H59            6.2176     8.0233    -4.3957 H       
  60 H60            4.2945     7.2762    -6.1216 H       
  61 H61            3.2214     5.0748    -5.1859 H       
  62 H62           10.9116     6.3279     2.9884 H       
  63 H63           13.1591     7.0135     1.4215 H       
  64 H64           12.3413     8.5150     1.9164 H       
  65 H65           12.4983     7.8179     4.2908 H       
  66 H66           13.3161     6.3164     3.7960 H       
  67 H67           15.1509     7.6472     2.7903 H       
  68 H68           14.3331     9.1487     3.2852 H       
  69 H69           16.9900     6.5634     6.9686 H       
  70 H70           15.1821     8.1365     7.9607 H       
  71 H71           16.5798     9.0924     7.3731 H       
  72 H72           15.2888     9.9497     5.6676 H       
  73 H73           13.8867     9.0020     6.2578 H       
@<TRIPOS>BOND
   1    1    2 ar
   2    1    6 ar
   3    1   40 1
   4    2    3 ar
   5    2   41 1
   6    3    4 ar
   7    3   42 1
   8    4    5 ar
   9    4   43 1
  10    5    6 ar
  11    5    7 1
  12    6   19 1
  13    7    8 1
  14    7   12 1
  15    8    9 1
  16    8   44 1
  17    8   45 1
  18    9   10 1
  19    9   46 1
  20    9   47 1
  21   10   11 1
  22   10   13 1
  23   11   12 1
  24   11   48 1
  25   11   49 1
  26   12   50 1
  27   12   51 1
  28   13   14 ar
  29   13   18 ar
  30   14   15 ar
  31   14   20 1
  32   15   16 ar
  33   15   52 1
  34   16   17 ar
  35   16   28 1
  36   17   18 ar
  37   17   53 1
  38   18   54 1
  39   19   55 1
  40   19   56 1
  41   19   57 1
  42   20   21 am
  43   20   58 1
  44   21   22 1
  45   21   23 2
  46   22   24 2
  47   22   27 1
  48   24   25 1
  49   24   59 1
  50   25   26 2
  51   25   60 1
  52   26   27 1
  53   26   61 1
  54   28   29 2
  55   28   30 am
  56   30   31 1
  57   30   62 1
  58   31   32 1
  59   31   63 1
  60   31   64 1
  61   32   33 1
  62   32   65 1
  63   32   66 1
  64   33   34 1
  65   33   67 1
  66   33   68 1
  67   34   35 am
  68   34   38 1
  69   35   36 am
  70   35   39 2
  71   36   37 1
  72   36   69 1
  73   37   38 1
  74   37   70 1
  75   37   71 1
  76   38   72 1
  77   38   73 1

#	End of record

