#	Name: ASD02620008
#	Creating user name:	WinNT
#	Creation time:	15. 06. 2019 20:26

#	Modifying user name:	WinNT
#	Modification time:	15. 06. 2019 20:26

#	Program:	/corina/corina34_cracker 3.40 0067  02.08.2006

@<TRIPOS>MOLECULE
ASD02620008
  28   29    0    0    0
SMALL
NO_CHARGES


@<TRIPOS>ATOM
   1 C1            -0.0744     1.1684    -0.3797 C.ar    
   2 N2             0.3370     0.3612    -1.3363 N.ar    
   3 C3             1.5157    -0.2410    -1.2616 C.ar    
   4 C4             2.3223    -0.0108    -0.1535 C.ar    
   5 C5             1.8502     0.8523     0.8402 C.ar    
   6 N6             0.6577     1.4151     0.6883 N.ar    
   7 N7             3.5759    -0.6280    -0.0349 N.pl3   
   8 C8            -1.4197     1.8344    -0.5135 C.3     
   9 O9             2.5984     1.1099     1.9415 O.3     
  10 C10            2.0429     2.0029     2.9090 C.3     
  11 C11            4.7096     0.0320    -0.4497 C.2     
  12 N12            4.6876     1.2346    -0.9250 N.2     
  13 C13            6.0483     1.6631    -1.2773 C.3     
  14 C14            6.9278     0.4506    -0.9127 C.3     
  15 N15            5.9576    -0.5256    -0.3894 N.pl3   
  16 Cl16           2.0439    -1.3024    -2.5297 Cl      
  17 H17            3.6437    -1.5202     0.3395 H       
  18 H18           -2.1850     1.2008    -0.0652 H       
  19 H19           -1.4007     2.7974    -0.0033 H       
  20 H20           -1.6464     1.9867    -1.5687 H       
  21 H21            2.7415     2.1218     3.7371 H       
  22 H22            1.8602     2.9725     2.4457 H       
  23 H23            1.1031     1.5956     3.2820 H       
  24 H24            6.1171     1.8782    -2.3437 H       
  25 H25            6.3380     2.5353    -0.6912 H       
  26 H26            7.4311     0.0607    -1.7974 H       
  27 H27            7.6522     0.7184    -0.1435 H       
  28 H28            6.1672    -1.4135    -0.0598 H       
@<TRIPOS>BOND
   1    1    2 ar
   2    1    6 ar
   3    1    8 1
   4    2    3 ar
   5    3    4 ar
   6    3   16 1
   7    4    5 ar
   8    4    7 1
   9    5    6 ar
  10    5    9 1
  11    7   11 1
  12    7   17 1
  13    8   18 1
  14    8   19 1
  15    8   20 1
  16    9   10 1
  17   10   21 1
  18   10   22 1
  19   10   23 1
  20   11   12 2
  21   11   15 1
  22   12   13 1
  23   13   14 1
  24   13   24 1
  25   13   25 1
  26   14   15 1
  27   14   26 1
  28   14   27 1
  29   15   28 1

#	End of record

