#	Name: ASD01915871
#	Creating user name:	WinNT
#	Creation time:	15. 06. 2019 20:06

#	Modifying user name:	WinNT
#	Modification time:	15. 06. 2019 20:06

#	Program:	/corina/corina34_cracker 3.40 0067  02.08.2006

@<TRIPOS>MOLECULE
ASD01915871
  46   50    0    0    0
SMALL
NO_CHARGES


@<TRIPOS>ATOM
   1 C1            -0.0166     1.3728     0.0096 C.2     
   2 N2             0.0021    -0.0041     0.0020 N.pl3   
   3 C3            -1.2433    -0.7807    -0.0179 C.3     
   4 C4            -2.3411     0.0067     0.6954 C.3     
   5 N5            -2.4044     1.3988     0.2637 N.am    
   6 C6            -1.2812     2.1228     0.0393 C.2     
   7 C7             1.2845     1.7904    -0.0006 C.2     
   8 C8             2.0437     0.6124    -0.0024 C.2     
   9 N9             1.2133    -0.4042     0.0045 N.2     
  10 C10            3.5483     0.5277    -0.0111 C.3     
  11 O11            4.0995     1.8461    -0.0175 O.3     
  12 C12            5.4547     1.9482    -0.0257 C.ar    
  13 O13           -1.3171     3.3271    -0.1288 O.2     
  14 C14            6.0573     3.1978    -0.0322 C.ar    
  15 C15            6.2377     0.8030    -0.0220 C.ar    
  16 C16            7.6151     0.9095    -0.0305 C.ar    
  17 C17            8.2132     2.1560    -0.0427 C.ar    
  18 C18            7.4350     3.2989    -0.0407 C.ar    
  19 C19           -3.6508     1.9987     0.0770 C.ar    
  20 C20           -4.2706     2.6491     1.1206 C.ar    
  21 C21           -4.2828     1.9478    -1.1854 C.ar    
  22 C22           -5.5472     2.5645    -1.3476 C.ar    
  23 C23           -6.1509     3.2140    -0.2588 C.ar    
  24 C24           -5.5155     3.2522     0.9474 C.ar    
  25 N25           -3.7059     1.3302    -2.2195 N.ar    
  26 C26           -4.2864     1.2795    -3.3938 C.ar    
  27 C27           -5.5296     1.8654    -3.6223 C.ar    
  28 C28           -6.1747     2.5122    -2.6071 C.ar    
  29 F29           -6.1028     3.8791     1.9901 F       
  30 H30           -1.5404    -0.9656    -1.0502 H       
  31 H31           -1.0875    -1.7313     0.4922 H       
  32 H32           -3.3017    -0.4680     0.4955 H       
  33 H33           -2.1536    -0.0209     1.7688 H       
  34 H34            1.6486     2.8071    -0.0064 H       
  35 H35            3.8874    -0.0036     0.8781 H       
  36 H36            3.8769    -0.0078    -0.9018 H       
  37 H37            5.4499     4.0908    -0.0310 H       
  38 H38            5.7710    -0.1709    -0.0121 H       
  39 H39            8.2251     0.0183    -0.0272 H       
  40 H40            9.2901     2.2371    -0.0493 H       
  41 H41            7.9046     4.2714    -0.0506 H       
  42 H42           -3.7866     2.6922     2.0851 H       
  43 H43           -7.1149     3.6862    -0.3775 H       
  44 H44           -3.7877     0.7705    -4.2054 H       
  45 H45           -5.9828     1.8079    -4.6009 H       
  46 H46           -7.1390     2.9718    -2.7662 H       
@<TRIPOS>BOND
   1    1    2 1
   2    1    7 2
   3    1    6 1
   4    2    3 1
   5    2    9 1
   6    3    4 1
   7    3   30 1
   8    3   31 1
   9    4    5 1
  10    4   32 1
  11    4   33 1
  12    5    6 am
  13    5   19 1
  14    6   13 2
  15    7    8 1
  16    7   34 1
  17    8    9 2
  18    8   10 1
  19   10   11 1
  20   10   35 1
  21   10   36 1
  22   11   12 1
  23   12   14 ar
  24   12   15 ar
  25   14   18 ar
  26   14   37 1
  27   15   16 ar
  28   15   38 1
  29   16   17 ar
  30   16   39 1
  31   17   18 ar
  32   17   40 1
  33   18   41 1
  34   19   20 ar
  35   19   21 ar
  36   20   24 ar
  37   20   42 1
  38   21   22 ar
  39   21   25 ar
  40   22   23 ar
  41   22   28 ar
  42   23   24 ar
  43   23   43 1
  44   24   29 1
  45   25   26 ar
  46   26   27 ar
  47   26   44 1
  48   27   28 ar
  49   27   45 1
  50   28   46 1

#	End of record

