#	Name: ASD01883490
#	Creating user name:	WinNT
#	Creation time:	15. 06. 2019 19:46

#	Modifying user name:	WinNT
#	Modification time:	15. 06. 2019 19:46

#	Program:	/corina/corina34_cracker 3.40 0067  02.08.2006

@<TRIPOS>MOLECULE
ASD01883490
  50   53    0    0    0
SMALL
NO_CHARGES


@<TRIPOS>ATOM
   1 N1            -0.0162     1.3417     0.0094 N.am    
   2 C2             0.0021    -0.0041     0.0020 C.2     
   3 C3            -1.2162    -0.7274     0.0102 C.2     
   4 C4            -2.4259    -0.0114     0.0261 C.2     
   5 C5            -2.3786     1.3964     0.0332 C.2     
   6 C6            -1.1850     2.0323     0.0299 C.2     
   7 O7             1.0656    -0.6000    -0.0121 O.2     
   8 C8            -1.2153    -2.1594     0.0021 C.1     
   9 N9            -1.2146    -3.2953    -0.0044 N.1     
  10 C10            1.2512     2.0765     0.0013 C.3     
  11 C11            1.6786     2.3400    -1.4440 C.3     
  12 C12            3.0023     3.1074    -1.4525 C.3     
  13 C13            3.4297     3.3709    -2.8978 C.3     
  14 C14           -3.7222    -0.7219     0.0347 C.ar    
  15 C15           -4.5637    -0.6150     1.1348 C.ar    
  16 C16           -5.7859    -1.2903     1.1314 C.ar    
  17 C17           -6.1523    -2.0707     0.0163 C.ar    
  18 C18           -5.2906    -2.1634    -1.0769 C.ar    
  19 C19           -4.1022    -1.4980    -1.0707 C.ar    
  20 C20           -6.8848    -1.3995     2.0870 C.2     
  21 N21           -7.7919    -2.1718     1.5614 N.2     
  22 N22           -7.3822    -2.6029     0.2958 N.pl3   
  23 C23           -8.1475    -3.4835    -0.5902 C.3     
  24 C24           -9.0339    -2.6522    -1.4814 C.ar    
  25 N25           -9.8759    -1.7918    -0.9434 N.ar    
  26 C26          -10.6705    -1.0436    -1.6838 C.ar    
  27 C27          -10.6475    -1.1373    -3.0623 C.ar    
  28 C28           -9.7749    -2.0312    -3.6644 C.ar    
  29 C29           -8.9508    -2.7964    -2.8537 C.ar    
  30 H30           -3.2950     1.9676     0.0453 H       
  31 H31           -1.1612     3.1120     0.0358 H       
  32 H32            1.1241     3.0259     0.5214 H       
  33 H33            2.0168     1.4860     0.5046 H       
  34 H34            1.8057     1.3906    -1.9642 H       
  35 H35            0.9131     2.9305    -1.9474 H       
  36 H36            2.8752     4.0568    -0.9323 H       
  37 H37            3.7678     2.5169    -0.9491 H       
  38 H38            3.5568     2.4215    -3.4179 H       
  39 H39            2.6642     3.9614    -3.4011 H       
  40 H40            4.3727     3.9176    -2.9038 H       
  41 H41           -4.2751    -0.0151     1.9853 H       
  42 H42           -5.5686    -2.7609    -1.9325 H       
  43 H43           -3.4416    -1.5758    -1.9216 H       
  44 H44           -6.9358    -0.9252     3.0560 H       
  45 H45           -7.4612    -4.0676    -1.2032 H       
  46 H46           -8.7622    -4.1559     0.0083 H       
  47 H47          -11.3472    -0.3499    -1.2072 H       
  48 H48          -11.3011    -0.5224    -3.6631 H       
  49 H49           -9.7354    -2.1262    -4.7395 H       
  50 H50           -8.2588    -3.5024    -3.2884 H       
@<TRIPOS>BOND
   1    1    2 am
   2    1   10 1
   3    1    6 1
   4    2    3 1
   5    2    7 2
   6    3    4 2
   7    3    8 1
   8    4    5 1
   9    4   14 1
  10    5    6 2
  11    5   30 1
  12    6   31 1
  13    8    9 3
  14   10   11 1
  15   10   32 1
  16   10   33 1
  17   11   12 1
  18   11   34 1
  19   11   35 1
  20   12   13 1
  21   12   36 1
  22   12   37 1
  23   13   38 1
  24   13   39 1
  25   13   40 1
  26   14   15 ar
  27   14   19 ar
  28   15   16 ar
  29   15   41 1
  30   16   17 ar
  31   16   20 1
  32   17   18 ar
  33   17   22 1
  34   18   19 ar
  35   18   42 1
  36   19   43 1
  37   20   21 2
  38   20   44 1
  39   21   22 1
  40   22   23 1
  41   23   24 1
  42   23   45 1
  43   23   46 1
  44   24   25 ar
  45   24   29 ar
  46   25   26 ar
  47   26   27 ar
  48   26   47 1
  49   27   28 ar
  50   27   48 1
  51   28   29 ar
  52   28   49 1
  53   29   50 1

#	End of record

