#	Name: ASD04940004
#	Creating user name:	WinNT
#	Creation time:	15. 06. 2019 20:56

#	Modifying user name:	WinNT
#	Modification time:	15. 06. 2019 20:56

#	Program:	/corina/corina34_cracker 3.40 0067  02.08.2006

@<TRIPOS>MOLECULE
ASD04940004
  54   57    0    0    0
SMALL
NO_CHARGES


@<TRIPOS>ATOM
   1 C1            -0.0166     1.3755     0.0096 C.ar    
   2 C2             0.0021    -0.0041     0.0020 C.ar    
   3 C3             1.2119    -0.6867    -0.0127 C.ar    
   4 C4             2.4056     0.0013    -0.0204 C.ar    
   5 C5             2.4073     1.3929    -0.0130 C.ar    
   6 C6             1.1844     2.0817     0.0019 C.ar    
   7 N7             3.4242     2.3283    -0.0173 N.pl3   
   8 C8             2.9123     3.5899    -0.0058 C.2     
   9 C9             1.5209     3.5177     0.0069 C.2     
  10 C10            3.7044     4.8347    -0.0056 C.ar    
  11 C11            4.7943     4.9733    -0.8688 C.ar    
  12 C12            5.5299     6.1399    -0.8635 C.ar    
  13 C13            5.1911     7.1715    -0.0056 C.ar    
  14 C14            4.1133     7.0412     0.8524 C.ar    
  15 C15            3.3648     5.8827     0.8537 C.ar    
  16 C16            0.6150     4.6017     0.0219 C.2     
  17 O17            1.0326     5.7422     0.0240 O.2     
  18 C18           -0.8696     4.3428     0.0355 C.3     
  19 N19           -1.5897     5.6231     0.0497 N.3     
  20 C20           -3.0273     5.4210    -0.1751 C.3     
  21 C21           -3.6932     6.7543    -0.3984 C.2     
  22 N22           -5.0201     6.8151    -0.6266 N.am    
  23 C23           -1.3500     6.3481     1.3047 C.3     
  24 O24           -3.0350     7.7727    -0.3729 O.2     
  25 C25           -5.6924     8.1053    -0.8474 C.3     
  26 C26           -6.5354     7.9990    -2.1234 C.3     
  27 O27           -7.3808     6.8496    -2.0346 O.3     
  28 C28           -6.6751     5.6093    -1.9477 C.3     
  29 C29           -5.8383     5.5927    -0.6683 C.3     
  30 F30           -1.1599    -0.6933     0.0094 F       
  31 H31           -0.9577     1.9054     0.0170 H       
  32 H32            1.2168    -1.7666    -0.0179 H       
  33 H33            3.3404    -0.5396    -0.0319 H       
  34 H34            4.3706     2.1159    -0.0268 H       
  35 H35            5.0602     4.1687    -1.5384 H       
  36 H36            6.3726     6.2484    -1.5302 H       
  37 H37            5.7710     8.0827    -0.0055 H       
  38 H38            3.8548     7.8502     1.5195 H       
  39 H39            2.5211     5.7841     1.5207 H       
  40 H40           -1.1482     3.7791    -0.8548 H       
  41 H41           -1.1303     3.7694     0.9250 H       
  42 H42           -3.1728     4.7907    -1.0524 H       
  43 H43           -3.4669     4.9369     0.6970 H       
  44 H44           -0.2834     6.5458     1.4119 H       
  45 H45           -1.8947     7.2920     1.2887 H       
  46 H46           -1.6938     5.7443     2.1445 H       
  47 H47           -6.3377     8.3330     0.0010 H       
  48 H48           -4.9473     8.8923    -0.9642 H       
  49 H49           -7.1481     8.8941    -2.2305 H       
  50 H50           -5.8778     7.9014    -2.9872 H       
  51 H51           -7.3883     4.7852    -1.9284 H       
  52 H52           -6.0180     5.5031    -2.8108 H       
  53 H53           -5.1898     4.7166    -0.6666 H       
  54 H54           -6.4985     5.5631     0.1985 H       
@<TRIPOS>BOND
   1    1    2 ar
   2    1    6 ar
   3    1   31 1
   4    2    3 ar
   5    2   30 1
   6    3    4 ar
   7    3   32 1
   8    4    5 ar
   9    4   33 1
  10    5    7 1
  11    5    6 ar
  12    6    9 1
  13    7    8 1
  14    7   34 1
  15    8    9 2
  16    8   10 1
  17    9   16 1
  18   10   11 ar
  19   10   15 ar
  20   11   12 ar
  21   11   35 1
  22   12   13 ar
  23   12   36 1
  24   13   14 ar
  25   13   37 1
  26   14   15 ar
  27   14   38 1
  28   15   39 1
  29   16   17 2
  30   16   18 1
  31   18   19 1
  32   18   40 1
  33   18   41 1
  34   19   20 1
  35   19   23 1
  36   20   21 1
  37   20   42 1
  38   20   43 1
  39   21   22 am
  40   21   24 2
  41   22   25 1
  42   22   29 1
  43   23   44 1
  44   23   45 1
  45   23   46 1
  46   25   26 1
  47   25   47 1
  48   25   48 1
  49   26   27 1
  50   26   49 1
  51   26   50 1
  52   27   28 1
  53   28   29 1
  54   28   51 1
  55   28   52 1
  56   29   53 1
  57   29   54 1

#	End of record

