#	Name: ASD01915014
#	Creating user name:	WinNT
#	Creation time:	15. 06. 2019 20:04

#	Modifying user name:	WinNT
#	Modification time:	15. 06. 2019 20:04

#	Program:	/corina/corina34_cracker 3.40 0067  02.08.2006

@<TRIPOS>MOLECULE
ASD01915014
  26   27    0    0    0
SMALL
NO_CHARGES


@<TRIPOS>ATOM
   1 C1            -0.0169     1.3917     0.0097 C.ar    
   2 C2             0.0021    -0.0041     0.0020 C.ar    
   3 C3             1.2234    -0.6601    -0.0131 C.ar    
   4 C4             2.3827     0.1004    -0.0201 C.ar    
   5 C5             2.2894     1.4822    -0.0118 C.ar    
   6 N6             1.1182     2.0813     0.0026 N.ar    
   7 C7            -1.2696     2.0853     0.0194 C.1     
   8 N8            -2.2634     2.6356     0.0270 N.1     
   9 C9             3.7320    -0.5705    -0.0361 C.3     
  10 O10            4.1459    -0.7758    -1.3883 O.3     
  11 C11            5.3506    -1.3747    -1.5806 C.ar    
  12 C12            5.8146    -1.6048    -2.8677 C.ar    
  13 C13            7.0394    -2.2138    -3.0605 C.ar    
  14 C14            7.8028    -2.5939    -1.9721 C.ar    
  15 C15            7.3425    -2.3660    -0.6884 C.ar    
  16 C16            6.1210    -1.7518    -0.4903 C.ar    
  17 Cl17          -1.4817    -0.9052     0.0119 Cl      
  18 H18            1.2707    -1.7390    -0.0190 H       
  19 H19            3.1912     2.0765    -0.0168 H       
  20 H20            4.4583     0.0620     0.4742 H       
  21 H21            3.6659    -1.5318     0.4735 H       
  22 H22            5.2185    -1.3085    -3.7181 H       
  23 H23            7.4009    -2.3935    -4.0622 H       
  24 H24            8.7602    -3.0699    -2.1250 H       
  25 H25            7.9403    -2.6645     0.1601 H       
  26 H26            5.7641    -1.5696     0.5126 H       
@<TRIPOS>BOND
   1    1    2 ar
   2    1    6 ar
   3    1    7 1
   4    2    3 ar
   5    2   17 1
   6    3    4 ar
   7    3   18 1
   8    4    5 ar
   9    4    9 1
  10    5    6 ar
  11    5   19 1
  12    7    8 3
  13    9   10 1
  14    9   20 1
  15    9   21 1
  16   10   11 1
  17   11   12 ar
  18   11   16 ar
  19   12   13 ar
  20   12   22 1
  21   13   14 ar
  22   13   23 1
  23   14   15 ar
  24   14   24 1
  25   15   16 ar
  26   15   25 1
  27   16   26 1

#	End of record

