#	Name: ASD02562069
#	Creating user name:	WinNT
#	Creation time:	15. 06. 2019 20:25

#	Modifying user name:	WinNT
#	Modification time:	15. 06. 2019 20:25

#	Program:	/corina/corina34_cracker 3.40 0067  02.08.2006

@<TRIPOS>MOLECULE
ASD02562069
  46   49    0    0    0
SMALL
NO_CHARGES


@<TRIPOS>ATOM
   1 C1             0.7408     2.1484    -1.1978 C.2     
   2 C2             1.0205     1.1172    -2.1123 C.2     
   3 C3             2.0463     0.2710    -1.8918 C.2     
   4 N4             2.8299     0.4013    -0.7766 N.pl3   
   5 C5             2.5802     1.4008     0.1360 C.2     
   6 C6             1.5091     2.2923    -0.0857 C.2     
   7 C7             3.9082    -0.3055    -0.3213 C.2     
   8 C8             4.2966     0.2797     0.8656 C.2     
   9 N9             3.4688     1.3116     1.1119 N.2     
  10 N10            4.5012    -1.4073    -0.9385 N.3     
  11 C11            5.4271    -0.1527     1.7203 C.ar    
  12 C12            5.8469    -1.0765    -1.4261 C.3     
  13 C13            6.6860    -2.3530    -1.5126 C.3     
  14 C14            8.0876    -2.0084    -2.0204 C.3     
  15 C15            7.9850    -1.3706    -3.4073 C.3     
  16 C16            7.1459    -0.0942    -3.3208 C.3     
  17 C17            5.7443    -0.4387    -2.8130 C.3     
  18 C18            5.3117    -1.2980     2.5069 C.ar    
  19 C19            6.3683    -1.6961     3.3008 C.ar    
  20 C20            7.5401    -0.9614     3.3177 C.ar    
  21 C21            7.6615     0.1764     2.5399 C.ar    
  22 C22            6.6140     0.5817     1.7368 C.ar    
  23 Cl23           6.7674     2.0095     0.7614 Cl      
  24 C24            2.3329    -0.8288    -2.8814 C.3     
  25 H25           -0.0794     2.8269    -1.3808 H       
  26 H26            0.4100     1.0025    -2.9958 H       
  27 H27            1.3016     3.0816     0.6217 H       
  28 H28            4.5272    -2.2004    -0.3152 H       
  29 H29            6.3206    -0.3762    -0.7382 H       
  30 H30            6.7591    -2.8074    -0.5245 H       
  31 H31            6.2123    -3.0533    -2.2005 H       
  32 H32            8.5613    -1.3081    -1.3325 H       
  33 H33            8.6854    -2.9178    -2.0820 H       
  34 H34            8.9835    -1.1251    -3.7691 H       
  35 H35            7.5113    -2.0709    -4.0952 H       
  36 H36            7.6196     0.6062    -2.6329 H       
  37 H37            7.0728     0.3603    -4.3088 H       
  38 H38            5.2706    -1.1390    -3.5009 H       
  39 H39            5.1465     0.4707    -2.7514 H       
  40 H40            4.3972    -1.8724     2.4955 H       
  41 H41            6.2797    -2.5832     3.9104 H       
  42 H42            8.3638    -1.2771     3.9409 H       
  43 H43            8.5787     0.7463     2.5579 H       
  44 H44            1.5574    -0.8396    -3.6473 H       
  45 H45            3.3022    -0.6540    -3.3483 H       
  46 H46            2.3464    -1.7883    -2.3644 H       
@<TRIPOS>BOND
   1    1    2 1
   2    1    6 2
   3    1   25 1
   4    2    3 2
   5    2   26 1
   6    3    4 1
   7    3   24 1
   8    4    5 1
   9    4    7 1
  10    5    6 1
  11    5    9 2
  12    6   27 1
  13    7    8 2
  14    7   10 1
  15    8    9 1
  16    8   11 1
  17   10   12 1
  18   10   28 1
  19   11   18 ar
  20   11   22 ar
  21   12   13 1
  22   12   17 1
  23   12   29 1
  24   13   14 1
  25   13   30 1
  26   13   31 1
  27   14   15 1
  28   14   32 1
  29   14   33 1
  30   15   16 1
  31   15   34 1
  32   15   35 1
  33   16   17 1
  34   16   36 1
  35   16   37 1
  36   17   38 1
  37   17   39 1
  38   18   19 ar
  39   18   40 1
  40   19   20 ar
  41   19   41 1
  42   20   21 ar
  43   20   42 1
  44   21   22 ar
  45   21   43 1
  46   22   23 1
  47   24   44 1
  48   24   45 1
  49   24   46 1

#	End of record

