#	Name: ASD01880048
#	Creating user name:	WinNT
#	Creation time:	15. 06. 2019 19:39

#	Modifying user name:	WinNT
#	Modification time:	15. 06. 2019 19:39

#	Program:	/corina/corina34_cracker 3.40 0067  02.08.2006

@<TRIPOS>MOLECULE
ASD01880048
  54   56    0    0    0
SMALL
NO_CHARGES


@<TRIPOS>ATOM
   1 S1            -0.0218     1.7577     0.0117 S.3     
   2 C2            -0.3837     1.4188    -1.6791 C.ar    
   3 C3            -1.6390     0.9441    -2.0613 C.ar    
   4 C4            -1.8819     0.6917    -3.3948 C.ar    
   5 N5            -0.9456     0.8931    -4.3034 N.ar    
   6 C6             0.2539     1.3410    -3.9822 C.ar    
   7 C7             0.5755     1.6235    -2.6715 C.ar    
   8 C8             8.1413     3.9077     2.6446 C.ar    
   9 C9             7.6279     3.6788     1.3762 C.ar    
  10 C10            8.4502     3.7772     0.2563 C.ar    
  11 C11            9.7685     4.1000     0.3939 C.ar    
  12 C12           10.3046     4.3352     1.6675 C.ar    
  13 C13            9.4755     4.2421     2.7998 C.ar    
  14 C14           11.7200     4.6814     1.8179 C.2     
  15 C15           12.6037     4.7856     0.6017 C.3     
  16 C16           14.0238     5.1570     1.0333 C.3     
  17 C17           14.6167     4.0203     1.8683 C.3     
  18 C18           14.8906     5.3848    -0.2067 C.3     
  19 O19            9.9827     4.4679     4.0370 O.3     
  20 O20           12.1809     4.8844     2.9219 O.2     
  21 C21            1.6934     2.1595    -0.0229 C.ar    
  22 C22            2.0961     3.4847    -0.1355 C.ar    
  23 C23            3.4412     3.7960    -0.1619 C.ar    
  24 C24            4.3871     2.7906    -0.0769 C.ar    
  25 C25            3.9899     1.4706     0.0352 C.ar    
  26 C26            2.6466     1.1525     0.0680 C.ar    
  27 C27            7.2456     3.7989     3.8517 C.3     
  28 C28            5.8541     3.1342    -0.1070 C.3     
  29 O29            6.3186     3.3571     1.2259 O.3     
  30 H30           -2.4092     0.7765    -1.3231 H       
  31 H31           -2.8505     0.3241    -3.6999 H       
  32 H32            0.9915     1.4922    -4.7565 H       
  33 H33            1.5586     1.9900    -2.4157 H       
  34 H34            8.0416     3.5965    -0.7270 H       
  35 H35           10.3998     4.1740    -0.4793 H       
  36 H36           12.6207     3.8277     0.0819 H       
  37 H37           12.2140     5.5543    -0.0658 H       
  38 H38           13.9955     6.0692     1.6294 H       
  39 H39           14.6450     3.1082     1.2722 H       
  40 H40           15.6284     4.2849     2.1758 H       
  41 H41           13.9992     3.8581     2.7517 H       
  42 H42           14.4681     6.1946    -0.8016 H       
  43 H43           15.9022     5.6494     0.1008 H       
  44 H44           14.9188     4.4727    -0.8028 H       
  45 H45            9.9311     5.3909     4.3208 H       
  46 H46            1.3580     4.2703    -0.2026 H       
  47 H47            3.7549     4.8257    -0.2493 H       
  48 H48            4.7312     0.6880     0.1014 H       
  49 H49            2.3371     0.1215     0.1556 H       
  50 H50            7.2650     2.7758     4.2274 H       
  51 H51            7.5982     4.4778     4.6282 H       
  52 H52            6.2259     4.0642     3.5727 H       
  53 H53            6.4112     2.3102    -0.5529 H       
  54 H54            6.0038     4.0367    -0.6995 H       
@<TRIPOS>BOND
   1    1    2 1
   2    1   21 1
   3    2    3 ar
   4    2    7 ar
   5    3    4 ar
   6    3   30 1
   7    4    5 ar
   8    4   31 1
   9    5    6 ar
  10    6    7 ar
  11    6   32 1
  12    7   33 1
  13    8    9 ar
  14    8   27 1
  15    8   13 ar
  16    9   10 ar
  17    9   29 1
  18   10   11 ar
  19   10   34 1
  20   11   12 ar
  21   11   35 1
  22   12   13 ar
  23   12   14 1
  24   13   19 1
  25   14   15 1
  26   14   20 2
  27   15   16 1
  28   15   36 1
  29   15   37 1
  30   16   17 1
  31   16   18 1
  32   16   38 1
  33   17   39 1
  34   17   40 1
  35   17   41 1
  36   18   42 1
  37   18   43 1
  38   18   44 1
  39   19   45 1
  40   21   22 ar
  41   21   26 ar
  42   22   23 ar
  43   22   46 1
  44   23   24 ar
  45   23   47 1
  46   24   25 ar
  47   24   28 1
  48   25   26 ar
  49   25   48 1
  50   26   49 1
  51   27   50 1
  52   27   51 1
  53   27   52 1
  54   28   29 1
  55   28   53 1
  56   28   54 1

#	End of record

