#	Name: ASD05143247
#	Creating user name:	WinNT
#	Creation time:	15. 06. 2019 20:57

#	Modifying user name:	WinNT
#	Modification time:	15. 06. 2019 20:57

#	Program:	/corina/corina34_cracker 3.40 0067  02.08.2006

@<TRIPOS>MOLECULE
ASD05143247
  48   51    0    0    0
SMALL
NO_CHARGES


@<TRIPOS>ATOM
   1 C1            -0.0551     1.3608     0.1419 C.2     
   2 N2             0.0411     0.0992    -0.2305 N.2     
   3 S3            -1.5549    -0.4811    -0.2928 S.3     
   4 C4            -2.2670     1.0118     0.1876 C.2     
   5 N5            -1.2655     1.8328     0.3652 N.2     
   6 C6            -3.7334     1.3073     0.3700 C.3     
   7 C7            -4.3119     1.8012    -0.9310 C.ar    
   8 C8            -4.8425     0.9021    -1.8371 C.ar    
   9 C9            -5.3730     1.3552    -3.0304 C.ar    
  10 C10           -5.3735     2.7075    -3.3174 C.ar    
  11 C11           -4.8437     3.6066    -2.4109 C.ar    
  12 C12           -4.3171     3.1539    -1.2157 C.ar    
  13 C13           -5.9510     3.2013    -4.6188 C.3     
  14 C14            1.1897    -0.5986    -0.5097 C.ar    
  15 C15            1.4870    -1.7734     0.1912 C.ar    
  16 C16            2.0635    -0.1439    -1.4971 C.ar    
  17 C17            3.2164    -0.8499    -1.7738 C.ar    
  18 C18            3.5092    -2.0082    -1.0754 C.ar    
  19 C19            2.6480    -2.4709    -0.0979 C.ar    
  20 O20            0.6399    -2.2273     1.1518 O.3     
  21 C21            1.0087    -3.4326     1.8251 C.3     
  22 C22            1.1473     2.2102     0.3085 C.ar    
  23 C23            1.0837     3.5756     0.0319 C.ar    
  24 C24            2.3458     1.6486     0.7479 C.ar    
  25 C25            3.4623     2.4448     0.9010 C.ar    
  26 C26            3.3945     3.7976     0.6196 C.ar    
  27 C27            2.2070     4.3616     0.1888 C.ar    
  28 H28           -4.2518     0.3987     0.6763 H       
  29 H29           -3.8574     2.0723     1.1365 H       
  30 H30           -4.8421    -0.1543    -1.6128 H       
  31 H31           -5.7869     0.6527    -3.7387 H       
  32 H32           -4.8437     4.6631    -2.6353 H       
  33 H33           -3.9032     3.8564    -0.5074 H       
  34 H34           -7.0119     3.4145    -4.4879 H       
  35 H35           -5.4328     4.1102    -4.9246 H       
  36 H36           -5.8260     2.4365    -5.3853 H       
  37 H37            1.8379     0.7592    -2.0447 H       
  38 H38            3.8927    -0.4973    -2.5385 H       
  39 H39            4.4131    -2.5558    -1.2980 H       
  40 H40            2.8825    -3.3756     0.4434 H       
  41 H41            0.2483    -3.6827     2.5649 H       
  42 H42            1.0912    -4.2428     1.1007 H       
  43 H43            1.9679    -3.2915     2.3233 H       
  44 H44            0.1573     4.0169    -0.3048 H       
  45 H45            2.3998     0.5927     0.9682 H       
  46 H46            4.3909     2.0111     1.2416 H       
  47 H47            4.2711     4.4168     0.7409 H       
  48 H48            2.1602     5.4182    -0.0298 H       
@<TRIPOS>BOND
   1    1    2 2
   2    1   22 1
   3    1    5 1
   4    2    3 1
   5    2   14 1
   6    3    4 1
   7    4    5 2
   8    4    6 1
   9    6    7 1
  10    6   28 1
  11    6   29 1
  12    7    8 ar
  13    7   12 ar
  14    8    9 ar
  15    8   30 1
  16    9   10 ar
  17    9   31 1
  18   10   11 ar
  19   10   13 1
  20   11   12 ar
  21   11   32 1
  22   12   33 1
  23   13   34 1
  24   13   35 1
  25   13   36 1
  26   14   15 ar
  27   14   16 ar
  28   15   20 1
  29   15   19 ar
  30   16   17 ar
  31   16   37 1
  32   17   18 ar
  33   17   38 1
  34   18   19 ar
  35   18   39 1
  36   19   40 1
  37   20   21 1
  38   21   41 1
  39   21   42 1
  40   21   43 1
  41   22   23 ar
  42   22   24 ar
  43   23   27 ar
  44   23   44 1
  45   24   25 ar
  46   24   45 1
  47   25   26 ar
  48   25   46 1
  49   26   27 ar
  50   26   47 1
  51   27   48 1

#	End of record

