#	Name: ASD00170049
#	Creating user name:	WinNT
#	Creation time:	15. 06. 2019 18:31

#	Modifying user name:	WinNT
#	Modification time:	15. 06. 2019 18:31

#	Program:	/corina/corina34_cracker 3.40 0067  02.08.2006

@<TRIPOS>MOLECULE
ASD00170049
  29   30    0    0    0
SMALL
NO_CHARGES


@<TRIPOS>ATOM
   1 C1            -0.0054     1.3207    -0.1241 C.2     
   2 C2             0.0159    -0.0027    -0.1527 C.2     
   3 C3            -1.2921    -0.5981     0.0230 C.2     
   4 C4            -2.2850     0.3405     0.1832 C.2     
   5 S5            -1.6365     1.9158     0.1279 S.3     
   6 N6            -3.6207     0.0471     0.3688 N.pl3   
   7 C7             1.2096     2.1984    -0.2806 C.3     
   8 C8            -1.5319    -2.0410     0.0290 C.2     
   9 C9            -1.5303    -2.7855     1.3067 C.ar    
  10 O10           -1.7328    -2.6292    -1.0182 O.2     
  11 C11            1.2744    -0.8080    -0.3489 C.3     
  12 C12           -1.8494    -4.1445     1.3263 C.ar    
  13 C13           -1.8458    -4.8336     2.5208 C.ar    
  14 C14           -1.5264    -4.1801     3.6995 C.ar    
  15 C15           -1.2094    -2.8318     3.6864 C.ar    
  16 C16           -1.2040    -2.1335     2.4973 C.ar    
  17 Cl17          -1.5240    -5.0542     5.1994 Cl      
  18 H18           -3.9278    -0.8713     0.3130 H       
  19 H19           -4.2524     0.7592     0.5550 H       
  20 H20            1.3573     2.4296    -1.3355 H       
  21 H21            1.0639     3.1234     0.2772 H       
  22 H22            2.0864     1.6769     0.1033 H       
  23 H23            1.7236    -1.0222     0.6209 H       
  24 H24            1.0320    -1.7442    -0.8517 H       
  25 H25            1.9780    -0.2402    -0.9577 H       
  26 H26           -2.0990    -4.6550     0.4079 H       
  27 H27           -2.0929    -5.8848     2.5372 H       
  28 H28           -0.9618    -2.3273     4.6087 H       
  29 H29           -0.9567    -1.0822     2.4882 H       
@<TRIPOS>BOND
   1    1    2 2
   2    1    7 1
   3    1    5 1
   4    2    3 1
   5    2   11 1
   6    3    4 2
   7    3    8 1
   8    4    5 1
   9    4    6 1
  10    6   18 1
  11    6   19 1
  12    7   20 1
  13    7   21 1
  14    7   22 1
  15    8    9 1
  16    8   10 2
  17    9   12 ar
  18    9   16 ar
  19   11   23 1
  20   11   24 1
  21   11   25 1
  22   12   13 ar
  23   12   26 1
  24   13   14 ar
  25   13   27 1
  26   14   15 ar
  27   14   17 1
  28   15   16 ar
  29   15   28 1
  30   16   29 1

#	End of record

