#	Name: ASD08830084
#	Creating user name:	WinNT
#	Creation time:	15. 06. 2019 21:19

#	Modifying user name:	WinNT
#	Modification time:	15. 06. 2019 21:19

#	Program:	/corina/corina34_cracker 3.40 0067  02.08.2006

@<TRIPOS>MOLECULE
ASD08830084
  52   54    0    0    0
SMALL
NO_CHARGES


@<TRIPOS>ATOM
   1 C1            -0.7729     1.6200     1.6018 C.ar    
   2 C2            -0.6049     0.1926     1.2997 C.2     
   3 C3            -1.8152    -0.6829     1.1005 C.3     
   4 C4            -1.3655    -2.1143     0.8006 C.3     
   5 N5            -2.5452    -2.9677     0.6064 N.3     
   6 O6             0.5079    -0.2816     1.2105 O.2     
   7 C7             0.3509     2.4354     1.7872 C.ar    
   8 C8             0.1836     3.7754     2.0707 C.ar    
   9 C9            -1.1013     4.3162     2.1725 C.ar    
  10 C10           -2.2143     3.5078     1.9885 C.ar    
  11 C11           -2.0567     2.1704     1.6995 C.ar    
  12 N12            1.2950     4.6102     2.2588 N.am    
  13 C13            1.1156     5.8180     2.8367 C.2     
  14 C14           -0.2592     6.2283     3.2995 C.3     
  15 O15           -1.2480     5.6368     2.4530 O.3     
  16 C16           -2.1611    -4.2862     0.0864 C.3     
  17 C17           -3.5272    -2.3167    -0.2701 C.3     
  18 C18           -4.7990    -3.1656    -0.3326 C.3     
  19 C19           -4.4520    -4.5573    -0.8688 C.3     
  20 C20           -3.3921    -5.1940     0.0345 C.3     
  21 C21           -5.7085    -5.4302    -0.8765 C.3     
  22 N22           -6.6838    -4.8762    -1.8250 N.3     
  23 O23            2.0568     6.5690     2.9829 O.2     
  24 C24           -6.2989    -5.1754    -3.2108 C.3     
  25 C25           -8.0373    -5.3691    -1.5365 C.3     
  26 H26           -2.4223    -0.6750     2.0058 H       
  27 H27           -2.4039    -0.3044     0.2649 H       
  28 H28           -0.7584    -2.1222    -0.1047 H       
  29 H29           -0.7767    -2.4928     1.6362 H       
  30 H30            1.3436     2.0172     1.7090 H       
  31 H31           -3.2056     3.9289     2.0682 H       
  32 H32           -2.9245     1.5436     1.5567 H       
  33 H33            2.1787     4.3246     1.9786 H       
  34 H34           -0.4119     5.8926     4.3252 H       
  35 H35           -0.3474     7.3139     3.2567 H       
  36 H36           -1.7492    -4.1751    -0.9166 H       
  37 H37           -1.4101    -4.7297     0.7401 H       
  38 H38           -3.7684    -1.3298     0.1248 H       
  39 H39           -3.1090    -2.2148    -1.2714 H       
  40 H40           -5.2254    -3.2565     0.6664 H       
  41 H41           -5.5218    -2.6900    -0.9956 H       
  42 H42           -4.0617    -4.4701    -1.8828 H       
  43 H43           -3.1097    -6.1675    -0.3662 H       
  44 H44           -3.7964    -5.3167     1.0393 H       
  45 H45           -5.4447    -6.4441    -1.1772 H       
  46 H46           -6.1438    -5.4492     0.1227 H       
  47 H47           -6.1441    -6.2487    -3.3212 H       
  48 H48           -7.0908    -4.8512    -3.8859 H       
  49 H49           -5.3762    -4.6483    -3.4534 H       
  50 H50           -8.3242    -5.0732    -0.5275 H       
  51 H51           -8.7394    -4.9435    -2.2534 H       
  52 H52           -8.0524    -6.4562    -1.6146 H       
@<TRIPOS>BOND
   1    1    2 1
   2    1    7 ar
   3    1   11 ar
   4    2    3 1
   5    2    6 2
   6    3    4 1
   7    3   26 1
   8    3   27 1
   9    4    5 1
  10    4   28 1
  11    4   29 1
  12    5   16 1
  13    5   17 1
  14    7    8 ar
  15    7   30 1
  16    8    9 ar
  17    8   12 1
  18    9   10 ar
  19    9   15 1
  20   10   11 ar
  21   10   31 1
  22   11   32 1
  23   12   13 am
  24   12   33 1
  25   13   14 1
  26   13   23 2
  27   14   15 1
  28   14   34 1
  29   14   35 1
  30   16   20 1
  31   16   36 1
  32   16   37 1
  33   17   18 1
  34   17   38 1
  35   17   39 1
  36   18   19 1
  37   18   40 1
  38   18   41 1
  39   19   20 1
  40   19   21 1
  41   19   42 1
  42   20   43 1
  43   20   44 1
  44   21   22 1
  45   21   45 1
  46   21   46 1
  47   22   24 1
  48   22   25 1
  49   24   47 1
  50   24   48 1
  51   24   49 1
  52   25   50 1
  53   25   51 1
  54   25   52 1

#	End of record

