#	Name: ASD01810479
#	Creating user name:	WinNT
#	Creation time:	15. 06. 2019 19:24

#	Modifying user name:	WinNT
#	Modification time:	15. 06. 2019 19:24

#	Program:	/corina/corina34_cracker 3.40 0067  02.08.2006

@<TRIPOS>MOLECULE
ASD01810479
  27   27    0    0    0
SMALL
NO_CHARGES


@<TRIPOS>ATOM
   1 C1            -0.0245     1.4724    -0.0626 C.2     
   2 C2            -0.0011    -0.0044    -0.0333 C.ar    
   3 C3             1.2134    -0.6884    -0.1185 C.ar    
   4 C4             1.2280    -2.0673    -0.0900 C.ar    
   5 C5             0.0428    -2.7729     0.0222 C.ar    
   6 C6            -1.1639    -2.1015     0.1066 C.ar    
   7 C7            -1.1925    -0.7223     0.0856 C.ar    
   8 O8             1.0176     2.0965    -0.0622 O.2     
   9 O9            -1.2015     2.1269    -0.0953 O.3     
  10 C10            0.0667    -4.2794     0.0521 C.3     
  11 C11            2.5050     0.0782    -0.2417 C.3     
  12 C12            2.9531     0.5483     1.1436 C.3     
  13 C13           -1.1485     3.5776    -0.1228 C.3     
  14 H14            2.1666    -2.5976    -0.1559 H       
  15 H15           -2.0852    -2.6583     0.1933 H       
  16 H16           -2.1348    -0.1994     0.1564 H       
  17 H17            0.1565    -4.6209     1.0833 H       
  18 H18           -0.8564    -4.6660    -0.3796 H       
  19 H19            0.9173    -4.6408    -0.5258 H       
  20 H20            3.2709    -0.5671    -0.6718 H       
  21 H21            2.3539     0.9431    -0.8877 H       
  22 H22            2.1872     1.1937     1.5736 H       
  23 H23            3.1042    -0.3165     1.7895 H       
  24 H24            3.8873     1.1028     1.0544 H       
  25 H25           -0.6369     3.9395     0.7691 H       
  26 H26           -0.6068     3.9047    -1.0103 H       
  27 H27           -2.1621     3.9778    -0.1477 H       
@<TRIPOS>BOND
   1    1    2 1
   2    1    8 2
   3    1    9 1
   4    2    3 ar
   5    2    7 ar
   6    3    4 ar
   7    3   11 1
   8    4    5 ar
   9    4   14 1
  10    5    6 ar
  11    5   10 1
  12    6    7 ar
  13    6   15 1
  14    7   16 1
  15    9   13 1
  16   10   17 1
  17   10   18 1
  18   10   19 1
  19   11   12 1
  20   11   20 1
  21   11   21 1
  22   12   22 1
  23   12   23 1
  24   12   24 1
  25   13   25 1
  26   13   26 1
  27   13   27 1

#	End of record

