#	Name: ASD00311341
#	Creating user name:	WinNT
#	Creation time:	15. 06. 2019 18:34

#	Modifying user name:	WinNT
#	Modification time:	15. 06. 2019 18:34

#	Program:	/corina/corina34_cracker 3.40 0067  02.08.2006

@<TRIPOS>MOLECULE
ASD00311341
  40   43    0    0    0
SMALL
NO_CHARGES


@<TRIPOS>ATOM
   1 C1            -0.0167     1.3780     0.0096 C.2     
   2 C2             0.0021    -0.0041     0.0020 C.2     
   3 C3             1.2588    -0.6766    -0.0140 C.2     
   4 C4             2.4315     0.0675    -0.0217 C.2     
   5 C5             2.3574     1.4754    -0.0134 C.2     
   6 N6             1.1649     2.0906     0.0022 N.am    
   7 C7            -1.3431    -0.5749     0.0123 C.2     
   8 C8            -2.3222     0.3256     0.0268 C.2     
   9 S9            -1.6794     1.9560     0.0358 S.3     
  10 O10            3.3823     2.1375    -0.0196 O.2     
  11 C11            3.7477    -0.6117    -0.0379 C.ar    
  12 C12            4.5930    -0.4743    -1.1387 C.ar    
  13 C13            5.8181    -1.1091    -1.1477 C.ar    
  14 C14            6.2083    -1.8811    -0.0679 C.ar    
  15 C15            5.3740    -2.0216     1.0267 C.ar    
  16 C16            4.1491    -1.3867     1.0501 C.ar    
  17 O17            1.3089    -2.0290    -0.0214 O.3     
  18 C18           -1.5956    -2.0354     0.0065 C.ar    
  19 C19           -1.2004    -2.8210     1.0946 C.ar    
  20 C20           -1.4400    -4.1845     1.0811 C.ar    
  21 C21           -2.0682    -4.7673    -0.0054 C.ar    
  22 C22           -2.4603    -3.9926    -1.0833 C.ar    
  23 C23           -2.2325    -2.6309    -1.0800 C.ar    
  24 O24           -0.5831    -2.2477     2.1609 O.3     
  25 C25           -0.2081    -3.1120     3.2353 C.3     
  26 Br26          -2.3919    -6.6303    -0.0178 Br      
  27 H27            1.1327     3.0601     0.0077 H       
  28 H28           -3.3747     0.0837     0.0356 H       
  29 H29            4.2892     0.1275    -1.9825 H       
  30 H30            6.4736    -1.0035    -1.9995 H       
  31 H31            7.1679    -2.3763    -0.0797 H       
  32 H32            5.6839    -2.6258     1.8665 H       
  33 H33            3.5005    -1.4935     1.9070 H       
  34 H34            2.2062    -2.3894    -0.0322 H       
  35 H35           -1.1359    -4.7940     1.9193 H       
  36 H36           -2.9501    -4.4542    -1.9279 H       
  37 H37           -2.5437    -2.0287    -1.9207 H       
  38 H38            0.2737    -2.5285     4.0198 H       
  39 H39           -1.0969    -3.5980     3.6378 H       
  40 H40            0.4849    -3.8689     2.8678 H       
@<TRIPOS>BOND
   1    1    2 2
   2    1    6 1
   3    1    9 1
   4    2    3 1
   5    2    7 1
   6    3    4 2
   7    3   17 1
   8    4    5 1
   9    4   11 1
  10    5    6 am
  11    5   10 2
  12    6   27 1
  13    7    8 2
  14    7   18 1
  15    8    9 1
  16    8   28 1
  17   11   12 ar
  18   11   16 ar
  19   12   13 ar
  20   12   29 1
  21   13   14 ar
  22   13   30 1
  23   14   15 ar
  24   14   31 1
  25   15   16 ar
  26   15   32 1
  27   16   33 1
  28   17   34 1
  29   18   19 ar
  30   18   23 ar
  31   19   20 ar
  32   19   24 1
  33   20   21 ar
  34   20   35 1
  35   21   22 ar
  36   21   26 1
  37   22   23 ar
  38   22   36 1
  39   23   37 1
  40   24   25 1
  41   25   38 1
  42   25   39 1
  43   25   40 1

#	End of record

