#	Name: ASD01670024
#	Creating user name:	WinNT
#	Creation time:	15. 06. 2019 19:22

#	Modifying user name:	WinNT
#	Modification time:	15. 06. 2019 19:22

#	Program:	/corina/corina34_cracker 3.40 0067  02.08.2006

@<TRIPOS>MOLECULE
ASD01670024
  67   70    0    0    0
SMALL
NO_CHARGES


@<TRIPOS>ATOM
   1 C1            -0.1430     1.1606    -0.3641 C.ar    
   2 N2             3.1582     3.7104     0.4133 N.am    
   3 O3             5.2812    -2.8824    -3.7280 O.2     
   4 C4             0.0927    -0.2270    -0.5371 C.ar    
   5 N5             3.7842    -1.9094    -0.1058 N.3     
   6 C6             0.9324     2.0130    -0.0722 C.ar    
   7 O7             4.4499     1.9085     0.5440 O.2     
   8 C8             1.4001    -0.7322    -0.4137 C.ar    
   9 O9             3.1297    -2.8140    -3.1842 O.3     
  10 C10            5.2679    -4.8756     0.2598 C.ar    
  11 C11            3.3525     6.5904     1.9043 C.ar    
  12 O12            4.2032    -6.0619    -3.5541 O.3     
  13 C13            3.8419     6.7715    -0.4344 C.ar    
  14 C14            5.1673    -6.2217    -0.0512 C.ar    
  15 O15            2.5206     9.9430     0.7622 O.3     
  16 C16            2.9192     7.9021     1.9179 C.ar    
  17 C17            3.4097     8.0836    -0.4260 C.ar    
  18 C18            2.2077     1.4854     0.0425 C.ar    
  19 C19            4.6532    -4.3082    -1.9923 C.ar    
  20 C20            3.8134     6.0256     0.7295 C.ar    
  21 C21            2.4284     0.1070    -0.1303 C.ar    
  22 C22            5.0139    -3.9194    -0.6995 C.ar    
  23 C23            4.8118    -6.6202    -1.3247 C.ar    
  24 C24            4.5525    -5.6720    -2.3028 C.ar    
  25 C25            2.9468     8.6526     0.7515 C.ar    
  26 C26            3.3453     2.3773     0.3493 C.2     
  27 C27            4.3796    -3.2909    -3.0233 C.2     
  28 C28           -2.4753     0.8032    -0.7612 C.ar    
  29 C29            4.1209    -7.4678    -3.7963 C.3     
  30 C30            2.5774    10.6553    -0.4753 C.3     
  31 C31            4.2860     4.5946     0.7176 C.3     
  32 C32            3.8247    -0.4448    -0.0004 C.3     
  33 C33            5.1246    -2.4566    -0.3547 C.3     
  34 C34            3.1863    -2.5073     1.0954 C.3     
  35 C35           -2.2417    -0.5587    -0.9423 C.ar    
  36 C36           -1.4534     1.6577    -0.4827 C.ar    
  37 C37           -0.9876    -1.0763    -0.8294 C.ar    
  38 H38            2.2768     4.0845     0.2580 H       
  39 H39            0.7671     3.0718     0.0617 H       
  40 H40            1.5853    -1.7882    -0.5440 H       
  41 H41            2.9992    -2.1480    -3.8731 H       
  42 H42            5.5422    -4.5740     1.2598 H       
  43 H43            3.3354     6.0071     2.8130 H       
  44 H44            4.2021     6.3279    -1.3509 H       
  45 H45            5.3686    -6.9642     0.7069 H       
  46 H46            2.5589     8.3427     2.8357 H       
  47 H47            3.4319     8.6657    -1.3354 H       
  48 H48            4.7359    -7.6716    -1.5593 H       
  49 H49           -3.4798     1.1882    -0.8568 H       
  50 H50            5.0914    -7.9266    -3.6068 H       
  51 H51            3.3756    -7.9077    -3.1338 H       
  52 H52            3.8332    -7.6417    -4.8332 H       
  53 H53            1.9579    10.1484    -1.2151 H       
  54 H54            2.2094    11.6706    -0.3274 H       
  55 H55            3.6084    10.6903    -0.8273 H       
  56 H56            4.6948     4.3389     1.6951 H       
  57 H57            5.0580     4.4733    -0.0422 H       
  58 H58            4.2387    -0.1615     0.9673 H       
  59 H59            4.4507    -0.0404    -0.7958 H       
  60 H60            5.5870    -1.9217    -1.1843 H       
  61 H61            5.7367    -2.3394     0.5395 H       
  62 H62            2.2143    -2.0511     1.2830 H       
  63 H63            3.0612    -3.5795     0.9439 H       
  64 H64            3.8396    -2.3351     1.9507 H       
  65 H65           -3.0702    -1.2158    -1.1621 H       
  66 H66           -1.6476     2.7122    -0.3532 H       
  67 H67           -0.8238    -2.1352    -0.9642 H       
@<TRIPOS>BOND
   1    1    4 ar
   2    1    6 ar
   3    1   36 ar
   4    2   26 am
   5    2   31 1
   6    2   38 1
   7    3   27 2
   8    4    8 ar
   9    4   37 ar
  10    5   32 1
  11    5   33 1
  12    5   34 1
  13    6   18 ar
  14    6   39 1
  15    7   26 2
  16    8   21 ar
  17    8   40 1
  18    9   27 1
  19    9   41 1
  20   10   14 ar
  21   10   22 ar
  22   10   42 1
  23   11   16 ar
  24   11   20 ar
  25   11   43 1
  26   12   24 1
  27   12   29 1
  28   13   17 ar
  29   13   20 ar
  30   13   44 1
  31   14   23 ar
  32   14   45 1
  33   15   25 1
  34   15   30 1
  35   16   25 ar
  36   16   46 1
  37   17   25 ar
  38   17   47 1
  39   18   21 ar
  40   18   26 1
  41   19   22 ar
  42   19   24 ar
  43   19   27 1
  44   20   31 1
  45   21   32 1
  46   22   33 1
  47   23   24 ar
  48   23   48 1
  49   28   35 ar
  50   28   36 ar
  51   28   49 1
  52   29   50 1
  53   29   51 1
  54   29   52 1
  55   30   53 1
  56   30   54 1
  57   30   55 1
  58   31   56 1
  59   31   57 1
  60   32   58 1
  61   32   59 1
  62   33   60 1
  63   33   61 1
  64   34   62 1
  65   34   63 1
  66   34   64 1
  67   35   37 ar
  68   35   65 1
  69   36   66 1
  70   37   67 1

#	End of record

