#	Name: ASD01881546
#	Creating user name:	WinNT
#	Creation time:	15. 06. 2019 19:42

#	Modifying user name:	WinNT
#	Modification time:	15. 06. 2019 19:42

#	Program:	/corina/corina34_cracker 3.40 0067  02.08.2006

@<TRIPOS>MOLECULE
ASD01881546
  57   60    0    0    0
SMALL
NO_CHARGES


@<TRIPOS>ATOM
   1 C1            -0.0168     1.3891     0.0097 C.ar    
   2 C2             0.0021    -0.0041     0.0020 C.ar    
   3 C3            -1.1637    -0.7171     0.0093 C.ar    
   4 C4            -2.3836    -0.0526     0.0245 C.ar    
   5 C5            -2.4161     1.3545     0.0324 C.ar    
   6 C6            -1.2165     2.0719     0.0305 C.ar    
   7 N7            -3.7008    -0.4435     0.0354 N.pl3   
   8 N8            -4.4337     0.6157     0.0484 N.2     
   9 N9            -3.7224     1.6879     0.0471 N.2     
  10 C10           -4.1873    -1.8254     0.0324 C.3     
  11 O11            1.1541     2.0807     0.0022 O.3     
  12 Br12          -1.2367     3.9628     0.0416 Br      
  13 C13            2.3601     1.3143    -0.0134 C.3     
  14 C14            3.5461     2.2440    -0.0197 C.ar    
  15 C15           -4.3423    -2.3147     1.4738 C.3     
  16 C16           -5.3440    -1.4229     2.2101 C.3     
  17 C17           -4.8504    -3.7578     1.4706 C.3     
  18 C18            4.1007     2.6635     1.1757 C.ar    
  19 C19            5.1895     3.5169     1.1773 C.ar    
  20 C20            5.7284     3.9542    -0.0155 C.ar    
  21 C21            5.1738     3.5344    -1.2231 C.ar    
  22 C22            4.0804     2.6710    -1.2188 C.ar    
  23 C23            5.7487     4.0015    -2.5088 C.ar    
  24 C24            5.1905     3.5789    -3.7170 C.ar    
  25 C25            6.8381     4.8634    -2.5094 C.ar    
  26 C26            7.3753     5.3006    -3.7210 C.ar    
  27 C27            6.8107     4.8661    -4.9292 C.ar    
  28 C28            5.7193     4.0087    -4.9149 C.ar    
  29 O29            7.3278     5.2870    -6.1101 O.3     
  30 C30           -2.9875    -2.2525     2.1819 C.3     
  31 C31            8.5311     6.2158    -3.7309 C.2     
  32 O32            8.9968     6.5948    -4.7872 O.2     
  33 O33            9.0710     6.6318    -2.5685 O.3     
  34 H34            0.9477    -0.5257    -0.0102 H       
  35 H35           -1.1367    -1.7968     0.0029 H       
  36 H36           -5.1525    -1.8696    -0.4721 H       
  37 H37           -3.4737    -2.4607    -0.4922 H       
  38 H38            2.3996     0.6810     0.8728 H       
  39 H39            2.3826     0.6905    -0.9070 H       
  40 H40           -6.3092    -1.4671     1.7057 H       
  41 H41           -5.4544    -1.7715     3.2370 H       
  42 H42           -4.9820    -0.3948     2.2124 H       
  43 H43           -4.1368    -4.3931     0.9460 H       
  44 H44           -4.9608    -4.1064     2.4974 H       
  45 H45           -5.8156    -3.8021     0.9661 H       
  46 H46            3.6821     2.3237     2.1115 H       
  47 H47            5.6183     3.8419     2.1138 H       
  48 H48            6.5782     4.6207    -0.0131 H       
  49 H49            3.6469     2.3422    -2.1518 H       
  50 H50            4.3410     2.9120    -3.7127 H       
  51 H51            7.2676     5.1943    -1.5754 H       
  52 H52            5.2851     3.6746    -5.8456 H       
  53 H53            8.0258     4.7163    -6.4596 H       
  54 H54           -2.6255    -1.2244     2.1841 H       
  55 H55           -3.0979    -2.6011     3.2087 H       
  56 H56           -2.2738    -2.8878     1.6573 H       
  57 H57            9.8276     7.2313    -2.6256 H       
@<TRIPOS>BOND
   1    1    2 ar
   2    1   11 1
   3    1    6 ar
   4    2    3 ar
   5    2   34 1
   6    3    4 ar
   7    3   35 1
   8    4    5 ar
   9    4    7 1
  10    5    6 ar
  11    5    9 1
  12    6   12 1
  13    7    8 1
  14    7   10 1
  15    8    9 2
  16   10   15 1
  17   10   36 1
  18   10   37 1
  19   11   13 1
  20   13   14 1
  21   13   38 1
  22   13   39 1
  23   14   18 ar
  24   14   22 ar
  25   15   16 1
  26   15   30 1
  27   15   17 1
  28   16   40 1
  29   16   41 1
  30   16   42 1
  31   17   43 1
  32   17   44 1
  33   17   45 1
  34   18   19 ar
  35   18   46 1
  36   19   20 ar
  37   19   47 1
  38   20   21 ar
  39   20   48 1
  40   21   22 ar
  41   21   23 1
  42   22   49 1
  43   23   24 ar
  44   23   25 ar
  45   24   28 ar
  46   24   50 1
  47   25   26 ar
  48   25   51 1
  49   26   31 1
  50   26   27 ar
  51   27   28 ar
  52   27   29 1
  53   28   52 1
  54   29   53 1
  55   30   54 1
  56   30   55 1
  57   30   56 1
  58   31   32 2
  59   31   33 1
  60   33   57 1

#	End of record

