#	Name: ASD05183001
#	Creating user name:	WinNT
#	Creation time:	15. 06. 2019 20:57

#	Modifying user name:	WinNT
#	Modification time:	15. 06. 2019 20:57

#	Program:	/corina/corina34_cracker 3.40 0067  02.08.2006

@<TRIPOS>MOLECULE
ASD05183001
  45   46    0    0    0
SMALL
NO_CHARGES


@<TRIPOS>ATOM
   1 C1            -0.0125     1.3712    -0.0098 C.ar    
   2 C2            -0.0102     0.0071    -0.2368 C.ar    
   3 C3            -1.1973    -0.6986    -0.2235 C.ar    
   4 C4            -2.3941    -0.0369     0.0187 C.ar    
   5 C5            -2.3929     1.3329     0.2468 C.ar    
   6 C6            -1.2018     2.0321     0.2369 C.ar    
   7 C7             1.2847     2.1381    -0.0250 C.3     
   8 C8             1.2301     3.2109    -1.1145 C.3     
   9 C9             1.4998     2.8036     1.3358 C.3     
  10 C10            2.8729     3.4778     1.3625 C.3     
  11 N11           -3.5985    -0.7489     0.0324 N.am    
  12 C12           -3.6331    -2.0055     0.5185 C.2     
  13 O13           -2.6063    -2.5499     0.8655 O.2     
  14 C14           -4.9474    -2.7341     0.6308 C.3     
  15 S15           -4.6642    -4.3903     1.3144 S.3     
  16 C16           -6.3331    -5.0987     1.3724 C.3     
  17 C17           -6.2658    -6.4981     1.9276 C.ar    
  18 C18           -6.3800    -6.7076     3.2893 C.ar    
  19 C19           -6.3188    -7.9909     3.7988 C.ar    
  20 C20           -6.1432    -9.0658     2.9461 C.ar    
  21 C21           -6.0291    -8.8558     1.5836 C.ar    
  22 C22           -6.0957    -7.5725     1.0745 C.ar    
  23 Br23          -6.0588   -10.8218     3.6427 Br      
  24 H24            0.9208    -0.5068    -0.4250 H       
  25 H25           -1.1950    -1.7638    -0.4015 H       
  26 H26           -3.3219     1.8504     0.4354 H       
  27 H27           -1.2002     3.0974     0.4145 H       
  28 H28            2.1086     1.4544    -0.2294 H       
  29 H29            2.1684     3.7656    -1.1255 H       
  30 H30            1.0769     2.7368    -2.0839 H       
  31 H31            0.4062     3.8947    -0.9102 H       
  32 H32            0.7244     3.5517     1.5009 H       
  33 H33            1.4500     2.0493     2.1210 H       
  34 H34            3.0261     3.9519     2.3319 H       
  35 H35            3.6483     2.7297     1.1973 H       
  36 H36            2.9227     4.2321     0.5772 H       
  37 H37           -4.4087    -0.3381    -0.3079 H       
  38 H38           -5.6156    -2.1788     1.2889 H       
  39 H39           -5.4001    -2.8213    -0.3570 H       
  40 H40           -6.9667    -4.4842     2.0120 H       
  41 H41           -6.7511    -5.1268     0.3662 H       
  42 H42           -6.5166    -5.8682     3.9550 H       
  43 H43           -6.4076    -8.1544     4.8627 H       
  44 H44           -5.8917    -9.6947     0.9175 H       
  45 H45           -6.0066    -7.4084     0.0107 H       
@<TRIPOS>BOND
   1    1    2 ar
   2    1    7 1
   3    1    6 ar
   4    2    3 ar
   5    2   24 1
   6    3    4 ar
   7    3   25 1
   8    4    5 ar
   9    4   11 1
  10    5    6 ar
  11    5   26 1
  12    6   27 1
  13    7    8 1
  14    7    9 1
  15    7   28 1
  16    8   29 1
  17    8   30 1
  18    8   31 1
  19    9   10 1
  20    9   32 1
  21    9   33 1
  22   10   34 1
  23   10   35 1
  24   10   36 1
  25   11   12 am
  26   11   37 1
  27   12   13 2
  28   12   14 1
  29   14   15 1
  30   14   38 1
  31   14   39 1
  32   15   16 1
  33   16   17 1
  34   16   40 1
  35   16   41 1
  36   17   18 ar
  37   17   22 ar
  38   18   19 ar
  39   18   42 1
  40   19   20 ar
  41   19   43 1
  42   20   21 ar
  43   20   23 1
  44   21   22 ar
  45   21   44 1
  46   22   45 1

#	End of record

