#	Name: ASD04882445
#	Creating user name:	WinNT
#	Creation time:	15. 06. 2019 20:54

#	Modifying user name:	WinNT
#	Modification time:	15. 06. 2019 20:54

#	Program:	/corina/corina34_cracker 3.40 0067  02.08.2006

@<TRIPOS>MOLECULE
ASD04882445
  74   78    0    0    0
SMALL
NO_CHARGES


@<TRIPOS>ATOM
   1 C1            -0.0215     1.4014    -0.0093 C.ar    
   2 C2            -0.0116     0.0037    -0.0052 C.ar    
   3 C3            -1.2095    -0.7018    -0.0160 C.ar    
   4 C4            -2.4097    -0.0266    -0.0313 C.ar    
   5 C5            -2.4268     1.3710    -0.0355 C.ar    
   6 C6            -1.2241     2.0827    -0.0189 C.ar    
   7 N7             1.1996    -0.6830     0.0094 N.3     
   8 C8             1.3071    -1.5360     1.2012 C.3     
   9 C9             1.3717    -1.4733    -1.2176 C.3     
  10 C10            2.7455    -2.1476    -1.1984 C.3     
  11 N11            2.8530    -3.0006    -0.0066 N.3     
  12 C12            2.6809    -2.2104     1.2204 C.3     
  13 C13           -3.7127     2.0939    -0.0524 C.2     
  14 O14           -3.7267     3.3098    -0.0561 O.2     
  15 N15           -4.8721     1.4067    -0.0637 N.am    
  16 N16            1.1861     2.1109     0.0021 N.am    
  17 C17            1.2291     3.3599     0.5068 C.2     
  18 C18            2.5153     4.0730     0.5999 C.2     
  19 N19            3.6855     3.6048     0.2211 N.2     
  20 C20            4.0680    -3.6895     0.0080 C.ar    
  21 O21            0.2063     3.8984     0.8853 O.2     
  22 N22            2.6966     5.3364     1.0892 N.pl3   
  23 C23            4.0247     5.6124     0.9969 C.2     
  24 C24            4.6209     4.5224     0.4545 C.2     
  25 C25            4.0807    -5.0783     0.0122 C.ar    
  26 C26            5.2840    -5.7564     0.0261 C.ar    
  27 C27            6.4749    -5.0541     0.0364 C.ar    
  28 C28            6.4659    -3.6710     0.0323 C.ar    
  29 C29            5.2666    -2.9869     0.0126 C.ar    
  30 C30            2.7831    -5.8446     0.0020 C.3     
  31 C31           -6.1490     2.1245    -0.0805 C.3     
  32 C32           -7.3004     1.1170    -0.0908 C.3     
  33 C33           -8.6340     1.8667    -0.1083 C.3     
  34 N34           -9.7365     0.9020    -0.1181 N.am    
  35 C35          -10.3203     0.4061     0.9865 C.2     
  36 C36          -10.3495     0.3575    -1.3354 C.3     
  37 C37          -11.1260    -0.8978    -0.8797 C.3     
  38 C38          -11.4127    -0.5683     0.6048 C.3     
  39 O39          -10.0152     0.6970     2.1236 O.2     
  40 H40           -1.1988    -1.7817    -0.0127 H       
  41 H41           -3.3386    -0.5776    -0.0404 H       
  42 H42           -1.2342     3.1627    -0.0218 H       
  43 H43            1.1888    -0.9261     2.0968 H       
  44 H44            0.5282    -2.2982     1.1744 H       
  45 H45            0.5936    -2.2347    -1.2719 H       
  46 H46            1.3005    -0.8176    -2.0854 H       
  47 H47            2.8638    -2.7575    -2.0940 H       
  48 H48            3.5243    -1.3855    -1.1716 H       
  49 H49            3.4590    -1.4490     1.2747 H       
  50 H50            2.7521    -2.8660     2.0882 H       
  51 H51           -4.8610     0.4367    -0.0608 H       
  52 H52            1.9914     1.7034    -0.3533 H       
  53 H53            2.0079     5.9248     1.4362 H       
  54 H54            4.5122     6.5285     1.2960 H       
  55 H55            5.6755     4.4166     0.2470 H       
  56 H56            5.2945    -6.8363     0.0294 H       
  57 H57            7.4144    -5.5867     0.0480 H       
  58 H58            7.3980    -3.1255     0.0407 H       
  59 H59            5.2603    -1.9070     0.0090 H       
  60 H60            2.4801    -6.0323    -1.0281 H       
  61 H61            2.9178    -6.7941     0.5199 H       
  62 H62            2.0128    -5.2615     0.5068 H       
  63 H63           -6.2242     2.7531     0.8069 H       
  64 H64           -6.2037     2.7479    -0.9729 H       
  65 H65           -7.2253     0.4885    -0.9781 H       
  66 H66           -7.2457     0.4936     0.8017 H       
  67 H67           -8.7091     2.4953     0.7791 H       
  68 H68           -8.6887     2.4901    -1.0007 H       
  69 H69          -11.0329     1.0860    -1.7718 H       
  70 H70           -9.5788     0.0835    -2.0558 H       
  71 H71          -12.0547    -1.0067    -1.4399 H       
  72 H72          -10.5098    -1.7922    -0.9713 H       
  73 H73          -11.3503    -1.4696     1.2146 H       
  74 H74          -12.3927    -0.1027     0.7098 H       
@<TRIPOS>BOND
   1    1    2 ar
   2    1   16 1
   3    1    6 ar
   4    2    3 ar
   5    2    7 1
   6    3    4 ar
   7    3   40 1
   8    4    5 ar
   9    4   41 1
  10    5    6 ar
  11    5   13 1
  12    6   42 1
  13    7    8 1
  14    7    9 1
  15    8   12 1
  16    8   43 1
  17    8   44 1
  18    9   10 1
  19    9   45 1
  20    9   46 1
  21   10   11 1
  22   10   47 1
  23   10   48 1
  24   11   12 1
  25   11   20 1
  26   12   49 1
  27   12   50 1
  28   13   14 2
  29   13   15 am
  30   15   31 1
  31   15   51 1
  32   16   17 am
  33   16   52 1
  34   17   18 1
  35   17   21 2
  36   18   22 1
  37   18   19 2
  38   19   24 1
  39   20   25 ar
  40   20   29 ar
  41   22   23 1
  42   22   53 1
  43   23   24 2
  44   23   54 1
  45   24   55 1
  46   25   26 ar
  47   25   30 1
  48   26   27 ar
  49   26   56 1
  50   27   28 ar
  51   27   57 1
  52   28   29 ar
  53   28   58 1
  54   29   59 1
  55   30   60 1
  56   30   61 1
  57   30   62 1
  58   31   32 1
  59   31   63 1
  60   31   64 1
  61   32   33 1
  62   32   65 1
  63   32   66 1
  64   33   34 1
  65   33   67 1
  66   33   68 1
  67   34   35 am
  68   34   36 1
  69   35   39 2
  70   35   38 1
  71   36   37 1
  72   36   69 1
  73   36   70 1
  74   37   38 1
  75   37   71 1
  76   37   72 1
  77   38   73 1
  78   38   74 1

#	End of record

