#	Name: ASD09740681
#	Creating user name:	WinNT
#	Creation time:	15. 06. 2019 21:23

#	Modifying user name:	WinNT
#	Modification time:	15. 06. 2019 21:23

#	Program:	/corina/corina34_cracker 3.40 0067  02.08.2006

@<TRIPOS>MOLECULE
ASD09740681
  56   59    0    0    0
SMALL
NO_CHARGES


@<TRIPOS>ATOM
   1 C1            -0.0358     1.4939     0.0169 C.2     
   2 C2            -0.0093    -0.0128     0.0019 C.3     
   3 O3             0.9998     2.1164     0.0194 O.2     
   4 O4            -1.2099     2.1445     0.0220 O.3     
   5 N5             1.3841    -0.4779    -0.0077 N.3     
   6 C6             1.4491    -1.9454    -0.0224 C.3     
   7 C7             2.7812    -2.4163    -0.6437 C.3     
   8 C8             3.0949    -3.6881     0.1728 C.3     
   9 C9             2.4031    -3.4846     1.5034 C.ar    
  10 C10            2.5882    -4.1309     2.7293 C.ar    
  11 C11            1.8189    -3.7630     3.8327 C.ar    
  12 C12            0.8778    -2.7617     3.7084 C.ar    
  13 C13            0.6986    -2.1257     2.4945 C.ar    
  14 C14            1.4590    -2.4851     1.3921 C.ar    
  15 S15            3.9623    -6.1202     4.3184 S.3     
  16 C16            3.5979    -5.2032     2.8555 C.2     
  17 N17            4.3780    -5.6403     1.9041 N.2     
  18 N18            5.1853    -6.5665     2.1881 N.2     
  19 C19            5.1808    -7.0199     3.4131 C.2     
  20 C20            6.0429    -8.0956     3.9462 C.ar    
  21 C21            6.9669    -8.7237     3.1149 C.ar    
  22 C22            7.7774    -9.7376     3.6230 C.ar    
  23 C23            7.6561   -10.1179     4.9681 C.ar    
  24 C24            6.7320    -9.4852     5.7871 C.ar    
  25 C25            5.9347    -8.4786     5.2862 C.ar    
  26 O26            8.4420   -11.1044     5.4677 O.3     
  27 C27            8.3505   -11.3588     6.8709 C.3     
  28 C28            7.1852   -12.3126     7.1414 C.3     
  29 C29            9.6536   -11.9940     7.3601 C.3     
  30 C30            8.7299   -10.3891     2.7751 C.1     
  31 N31            9.4855   -10.9060     2.1025 N.1     
  32 C32           -1.1594     3.5956     0.0365 C.3     
  33 H33           -0.5134    -0.3939     0.8900 H       
  34 H34           -0.5198    -0.3763    -0.8899 H       
  35 H35            1.8909    -0.0857    -0.7870 H       
  36 H36            0.6064    -2.3566    -0.5782 H       
  37 H37            2.6535    -2.6552    -1.6995 H       
  38 H38            3.5597    -1.6657    -0.5064 H       
  39 H39            2.6956    -4.5687    -0.3304 H       
  40 H40            4.1706    -3.7892     0.3172 H       
  41 H41            1.9590    -4.2604     4.7810 H       
  42 H42            0.2802    -2.4746     4.5609 H       
  43 H43           -0.0399    -1.3429     2.4037 H       
  44 H44            7.0551    -8.4265     2.0803 H       
  45 H45            6.6403    -9.7794     6.8222 H       
  46 H46            5.2205    -7.9872     5.9302 H       
  47 H47            8.1825   -10.4208     7.4001 H       
  48 H48            7.1154   -12.5067     8.2117 H       
  49 H49            6.2568   -11.8601     6.7928 H       
  50 H50            7.3532   -13.2507     6.6122 H       
  51 H51           10.4838   -11.3144     7.1674 H       
  52 H52            9.5838   -12.1881     8.4304 H       
  53 H53            9.8216   -12.9320     6.8310 H       
  54 H54           -0.6343     3.9319     0.9305 H       
  55 H55           -0.6321     3.9497    -0.8493 H       
  56 H56           -2.1738     3.9944     0.0393 H       
@<TRIPOS>BOND
   1    1    2 1
   2    1    3 2
   3    1    4 1
   4    2    5 1
   5    2   33 1
   6    2   34 1
   7    4   32 1
   8    5    6 1
   9    5   35 1
  10    6    7 1
  11    6   14 1
  12    6   36 1
  13    7    8 1
  14    7   37 1
  15    7   38 1
  16    8    9 1
  17    8   39 1
  18    8   40 1
  19    9   10 ar
  20    9   14 ar
  21   10   11 ar
  22   10   16 1
  23   11   12 ar
  24   11   41 1
  25   12   13 ar
  26   12   42 1
  27   13   14 ar
  28   13   43 1
  29   15   16 1
  30   15   19 1
  31   16   17 2
  32   17   18 1
  33   18   19 2
  34   19   20 1
  35   20   21 ar
  36   20   25 ar
  37   21   22 ar
  38   21   44 1
  39   22   23 ar
  40   22   30 1
  41   23   24 ar
  42   23   26 1
  43   24   25 ar
  44   24   45 1
  45   25   46 1
  46   26   27 1
  47   27   28 1
  48   27   29 1
  49   27   47 1
  50   28   48 1
  51   28   49 1
  52   28   50 1
  53   29   51 1
  54   29   52 1
  55   29   53 1
  56   30   31 3
  57   32   54 1
  58   32   55 1
  59   32   56 1

#	End of record

