#	Name: ASD01883931
#	Creating user name:	WinNT
#	Creation time:	15. 06. 2019 19:47

#	Modifying user name:	WinNT
#	Modification time:	15. 06. 2019 19:47

#	Program:	/corina/corina34_cracker 3.40 0067  02.08.2006

@<TRIPOS>MOLECULE
ASD01883931
  57   59    0    0    0
SMALL
NO_CHARGES


@<TRIPOS>ATOM
   1 C1            -0.0170     1.4024     0.0098 C.2     
   2 C2             0.0021    -0.0041     0.0020 C.2     
   3 C3            -1.2248    -0.6972     0.0105 C.2     
   4 C4            -2.3888    -0.0096     0.0258 C.2     
   5 N5            -2.4080     1.3483     0.0328 N.am    
   6 C6            -1.2688     2.0651     0.0312 C.2     
   7 C7            -3.6953     2.0474     0.0489 C.3     
   8 C8            -4.1294     2.2836     1.4969 C.3     
   9 C9            -5.4738     3.0137     1.5137 C.3     
  10 C10           -5.9679     3.1393     2.9562 C.3     
  11 C11           -5.3040     4.4090     0.9094 C.3     
  12 O12           -1.3143     3.2835     0.0387 O.2     
  13 C13            1.2047     2.1494     0.0021 C.1     
  14 N14            2.1739     2.7420    -0.0040 N.1     
  15 C15            1.2826    -0.7398    -0.0152 C.ar    
  16 C16            1.6463    -1.5377     1.0732 C.ar    
  17 C17            2.8419    -2.2233     1.0535 C.ar    
  18 C18            3.6868    -2.1204    -0.0499 C.ar    
  19 C19            3.3263    -1.3263    -1.1336 C.ar    
  20 C20            2.1302    -0.6440    -1.1220 C.ar    
  21 N21            4.8953    -2.8140    -0.0675 N.pl3   
  22 C22            5.7846    -2.7068    -1.2268 C.3     
  23 C23            7.0143    -3.5467    -0.9959 C.ar    
  24 F24            3.1951    -2.9950     2.1047 F       
  25 C25            7.0314    -4.8701    -1.3959 C.ar    
  26 C26            8.1575    -5.6421    -1.1854 C.ar    
  27 C27            9.2719    -5.0884    -0.5721 C.ar    
  28 C28            9.2523    -3.7603    -0.1716 C.ar    
  29 C29            8.1257    -2.9909    -0.3895 C.ar    
  30 O30           10.3807    -5.8459    -0.3635 O.3     
  31 C31           11.4906    -5.2098     0.2734 C.3     
  32 H32           -1.2353    -1.7771     0.0045 H       
  33 H33           -3.3229    -0.5516     0.0322 H       
  34 H34           -3.5948     3.0055    -0.4611 H       
  35 H35           -4.4443     1.4413    -0.4607 H       
  36 H36           -4.2298     1.3255     2.0069 H       
  37 H37           -3.3803     2.8897     2.0065 H       
  38 H38           -6.2006     2.4503     0.9285 H       
  39 H39           -5.2412     3.7027     3.5415 H       
  40 H40           -6.9257     3.6595     2.9682 H       
  41 H41           -6.0889     2.1453     3.3867 H       
  42 H42           -6.2618     4.9291     0.9214 H       
  43 H43           -4.5772     4.9724     1.4946 H       
  44 H44           -4.9520     4.3195    -0.1183 H       
  45 H45            0.9916    -1.6167     1.9285 H       
  46 H46            3.9834    -1.2482    -1.9871 H       
  47 H47            1.8514    -0.0281    -1.9643 H       
  48 H48            5.1477    -3.3678     0.6878 H       
  49 H49            5.2649    -3.0606    -2.1172 H       
  50 H50            6.0763    -1.6658    -1.3659 H       
  51 H51            6.1634    -5.3007    -1.8730 H       
  52 H52            8.1702    -6.6758    -1.4977 H       
  53 H53           10.1186    -3.3269     0.3060 H       
  54 H54            8.1100    -1.9570    -0.0780 H       
  55 H55           11.8220    -4.3659    -0.3318 H       
  56 H56           11.1892    -4.8542     1.2587 H       
  57 H57           12.3072    -5.9240     0.3790 H       
@<TRIPOS>BOND
   1    1    2 2
   2    1   13 1
   3    1    6 1
   4    2    3 1
   5    2   15 1
   6    3    4 2
   7    3   32 1
   8    4    5 1
   9    4   33 1
  10    5    7 1
  11    5    6 am
  12    6   12 2
  13    7    8 1
  14    7   34 1
  15    7   35 1
  16    8    9 1
  17    8   36 1
  18    8   37 1
  19    9   10 1
  20    9   11 1
  21    9   38 1
  22   10   39 1
  23   10   40 1
  24   10   41 1
  25   11   42 1
  26   11   43 1
  27   11   44 1
  28   13   14 3
  29   15   16 ar
  30   15   20 ar
  31   16   17 ar
  32   16   45 1
  33   17   18 ar
  34   17   24 1
  35   18   19 ar
  36   18   21 1
  37   19   20 ar
  38   19   46 1
  39   20   47 1
  40   21   22 1
  41   21   48 1
  42   22   23 1
  43   22   49 1
  44   22   50 1
  45   23   25 ar
  46   23   29 ar
  47   25   26 ar
  48   25   51 1
  49   26   27 ar
  50   26   52 1
  51   27   28 ar
  52   27   30 1
  53   28   29 ar
  54   28   53 1
  55   29   54 1
  56   30   31 1
  57   31   55 1
  58   31   56 1
  59   31   57 1

#	End of record

