#	Name: ASD01884107
#	Creating user name:	WinNT
#	Creation time:	15. 06. 2019 19:47

#	Modifying user name:	WinNT
#	Modification time:	15. 06. 2019 19:47

#	Program:	/corina/corina34_cracker 3.40 0067  02.08.2006

@<TRIPOS>MOLECULE
ASD01884107
  64   67    0    0    0
SMALL
NO_CHARGES


@<TRIPOS>ATOM
   1 C1             0.1020     2.2016     0.5994 C.2     
   2 C2            -0.1737     0.8379     0.5400 C.2     
   3 C3            -1.4837     0.4035     0.7467 C.2     
   4 C4            -2.4676     1.3028     1.0006 C.2     
   5 N5            -2.2068     2.6314     1.0599 N.am    
   6 C6            -0.9594     3.1032     0.8739 C.2     
   7 O7            -0.7442     4.3018     0.9309 O.2     
   8 C8            -3.2983     3.5686     1.3363 C.3     
   9 C9            -3.4165     3.7775     2.8240 C.ar    
  10 C10            1.4339     2.6854     0.3932 C.1     
  11 N11            2.4906     3.0691     0.2296 N.1     
  12 C12            0.9254    -0.1534     0.2564 C.3     
  13 N13            1.4531    -0.6754     1.5241 N.3     
  14 C14            2.3555    -1.8115     1.2909 C.3     
  15 C15            2.9443    -2.2743     2.6256 C.3     
  16 N16            1.8531    -2.6503     3.5353 N.3     
  17 C17            0.9506    -1.5141     3.7686 C.3     
  18 C18            0.3619    -1.0514     2.4338 C.3     
  19 C19           -2.7013     4.7891     3.4379 C.ar    
  20 C20           -2.8079     4.9827     4.8015 C.ar    
  21 C21           -3.6335     4.1610     5.5551 C.ar    
  22 C22           -4.3501     3.1467     4.9368 C.ar    
  23 C23           -4.2444     2.9608     3.5720 C.ar    
  24 C24            2.3807    -3.1723     4.8030 C.3     
  25 C25            1.2380    -3.4595     5.7425 C.2     
  26 C26            0.5108    -4.7431     5.6510 C.ar    
  27 C27            0.8850    -2.5610     6.6510 C.2     
  28 C28           -0.8203    -4.7660     5.2330 C.ar    
  29 C29           -1.4935    -5.9675     5.1498 C.ar    
  30 C30           -0.8516    -7.1478     5.4796 C.ar    
  31 C31            0.4678    -7.1319     5.8952 C.ar    
  32 C32            1.1541    -5.9377     5.9767 C.ar    
  33 O33           -3.7398     4.3491     6.8968 O.3     
  34 C34           -4.6083     3.4657     7.6090 C.3     
  35 F35           -4.1672     2.1478     7.4480 F       
  36 F36           -4.5990     3.7977     8.9680 F       
  37 F37           -5.9091     3.5865     7.1083 F       
  38 H38           -1.7150    -0.6506     0.7041 H       
  39 H39           -3.4773     0.9534     1.1580 H       
  40 H40           -3.0901     4.5221     0.8509 H       
  41 H41           -4.2332     3.1613     0.9511 H       
  42 H42            0.5282    -0.9761    -0.3381 H       
  43 H43            1.7260     0.3398    -0.2949 H       
  44 H44            1.7988    -2.6306     0.8355 H       
  45 H45            3.1618    -1.5047     0.6246 H       
  46 H46            3.5915    -3.1353     2.4586 H       
  47 H47            3.5236    -1.4639     3.0681 H       
  48 H48            0.1443    -1.8210     4.4348 H       
  49 H49            1.5073    -0.6951     4.2239 H       
  50 H50           -0.2853    -0.1904     2.6008 H       
  51 H51           -0.2175    -1.8618     1.9913 H       
  52 H52           -2.0584     5.4283     2.8508 H       
  53 H53           -2.2488     5.7727     5.2806 H       
  54 H54           -4.9935     2.5057     5.5213 H       
  55 H55           -4.8020     2.1714     3.0901 H       
  56 H56            2.9359    -4.0912     4.6145 H       
  57 H57            3.0437    -2.4330     5.2525 H       
  58 H58            0.0660    -2.7669     7.3243 H       
  59 H59            1.4164    -1.6232     6.7179 H       
  60 H60           -1.3226    -3.8452     4.9756 H       
  61 H61           -2.5239    -5.9865     4.8268 H       
  62 H62           -1.3830    -8.0856     5.4128 H       
  63 H63            0.9632    -8.0567     6.1516 H       
  64 H64            2.1842    -5.9266     6.3013 H       
@<TRIPOS>BOND
   1    1    2 2
   2    1   10 1
   3    1    6 1
   4    2    3 1
   5    2   12 1
   6    3    4 2
   7    3   38 1
   8    4    5 1
   9    4   39 1
  10    5    6 am
  11    5    8 1
  12    6    7 2
  13    8    9 1
  14    8   40 1
  15    8   41 1
  16    9   19 ar
  17    9   23 ar
  18   10   11 3
  19   12   13 1
  20   12   42 1
  21   12   43 1
  22   13   14 1
  23   13   18 1
  24   14   15 1
  25   14   44 1
  26   14   45 1
  27   15   16 1
  28   15   46 1
  29   15   47 1
  30   16   17 1
  31   16   24 1
  32   17   18 1
  33   17   48 1
  34   17   49 1
  35   18   50 1
  36   18   51 1
  37   19   20 ar
  38   19   52 1
  39   20   21 ar
  40   20   53 1
  41   21   33 1
  42   21   22 ar
  43   22   23 ar
  44   22   54 1
  45   23   55 1
  46   24   25 1
  47   24   56 1
  48   24   57 1
  49   25   26 1
  50   25   27 2
  51   26   28 ar
  52   26   32 ar
  53   27   58 1
  54   27   59 1
  55   28   29 ar
  56   28   60 1
  57   29   30 ar
  58   29   61 1
  59   30   31 ar
  60   30   62 1
  61   31   32 ar
  62   31   63 1
  63   32   64 1
  64   33   34 1
  65   34   35 1
  66   34   36 1
  67   34   37 1

#	End of record

