#	Name: ASD01915464
#	Creating user name:	WinNT
#	Creation time:	15. 06. 2019 20:05

#	Modifying user name:	WinNT
#	Modification time:	15. 06. 2019 20:05

#	Program:	/corina/corina34_cracker 3.40 0067  02.08.2006

@<TRIPOS>MOLECULE
ASD01915464
  49   51    0    0    0
SMALL
NO_CHARGES


@<TRIPOS>ATOM
   1 C1            -0.0180     1.4745     0.0101 C.2     
   2 C2             0.0021    -0.0041     0.0020 C.ar    
   3 C3             1.2207    -0.6858    -0.0133 C.ar    
   4 C4             1.2393    -2.0628    -0.0209 C.ar    
   5 C5             0.0397    -2.7773    -0.0138 C.ar    
   6 C6            -1.1789    -2.0957     0.0010 C.ar    
   7 C7            -1.1976    -0.7187     0.0154 C.ar    
   8 O8             1.0263     2.0965     0.0035 O.2     
   9 N9            -1.1942     2.1324     0.0193 N.am    
  10 O10            1.1484    -5.0405    -0.0367 O.3     
  11 N11            0.8169    -6.2070    -0.0404 N.2     
  12 C12           -0.4878    -6.3087    -0.0294 C.2     
  13 N13           -0.9892    -5.0561    -0.0177 N.2     
  14 C14            0.0597    -4.2559    -0.0225 C.2     
  15 C15           -1.2713    -7.5691    -0.0301 C.ar    
  16 C16           -0.6162    -8.7990    -0.0429 C.ar    
  17 C17           -1.3484    -9.9683    -0.0430 C.ar    
  18 C18           -2.7331    -9.9210    -0.0304 C.ar    
  19 C19           -3.3885    -8.7002    -0.0176 C.ar    
  20 C20           -2.6640    -7.5261    -0.0120 C.ar    
  21 F21           -3.4463   -11.0684    -0.0310 F       
  22 C22           -1.2141     3.5973     0.0274 C.3     
  23 C23           -2.6633     4.0876     0.0369 C.3     
  24 C24           -2.6841     5.6175     0.0453 C.3     
  25 C25           -1.9758     6.1440    -1.2045 C.3     
  26 C26           -4.1334     6.1078     0.0549 C.3     
  27 C27           -1.9639     6.1304     1.2940 C.3     
  28 H28            2.1486    -0.1331    -0.0195 H       
  29 H29            2.1818    -2.5900    -0.0327 H       
  30 H30           -2.1068    -2.6484     0.0062 H       
  31 H31           -2.1400    -0.1916     0.0318 H       
  32 H32           -2.0276     1.6361     0.0206 H       
  33 H33            0.4631    -8.8367    -0.0531 H       
  34 H34           -0.8414   -10.9219    -0.0534 H       
  35 H35           -4.4680    -8.6677    -0.0078 H       
  36 H36           -3.1755    -6.5751     0.0024 H       
  37 H37           -0.7010     3.9627     0.9169 H       
  38 H38           -0.7094     3.9724    -0.8630 H       
  39 H39           -3.1764     3.7222    -0.8527 H       
  40 H40           -3.1680     3.7125     0.9273 H       
  41 H41           -2.4888     5.7786    -2.0940 H       
  42 H42           -1.9905     7.2339    -1.1985 H       
  43 H43           -0.9433     5.7947    -1.2113 H       
  44 H44           -4.6380     5.7327     0.9452 H       
  45 H45           -4.1481     7.1977     0.0608 H       
  46 H46           -4.6464     5.7424    -0.8347 H       
  47 H47           -0.9314     5.7811     1.2872 H       
  48 H48           -1.9787     7.2203     1.3000 H       
  49 H49           -2.4685     5.7553     2.1843 H       
@<TRIPOS>BOND
   1    1    2 1
   2    1    8 2
   3    1    9 am
   4    2    3 ar
   5    2    7 ar
   6    3    4 ar
   7    3   28 1
   8    4    5 ar
   9    4   29 1
  10    5    6 ar
  11    5   14 1
  12    6    7 ar
  13    6   30 1
  14    7   31 1
  15    9   22 1
  16    9   32 1
  17   10   11 1
  18   10   14 1
  19   11   12 2
  20   12   13 1
  21   12   15 1
  22   13   14 2
  23   15   16 ar
  24   15   20 ar
  25   16   17 ar
  26   16   33 1
  27   17   18 ar
  28   17   34 1
  29   18   19 ar
  30   18   21 1
  31   19   20 ar
  32   19   35 1
  33   20   36 1
  34   22   23 1
  35   22   37 1
  36   22   38 1
  37   23   24 1
  38   23   39 1
  39   23   40 1
  40   24   25 1
  41   24   26 1
  42   24   27 1
  43   25   41 1
  44   25   42 1
  45   25   43 1
  46   26   44 1
  47   26   45 1
  48   26   46 1
  49   27   47 1
  50   27   48 1
  51   27   49 1

#	End of record

