#	Name: ASD08830260
#	Creating user name:	WinNT
#	Creation time:	15. 06. 2019 21:20

#	Modifying user name:	WinNT
#	Modification time:	15. 06. 2019 21:20

#	Program:	/corina/corina34_cracker 3.40 0067  02.08.2006

@<TRIPOS>MOLECULE
ASD08830260
  40   42    0    0    0
SMALL
NO_CHARGES


@<TRIPOS>ATOM
   1 C1             0.2742     1.7198    -0.2498 C.ar    
   2 C2             0.0478     0.3679    -0.0885 C.ar    
   3 C3             1.1149    -0.5290    -0.1383 C.ar    
   4 C4             2.4076    -0.0562    -0.3516 C.ar    
   5 C5             2.6260     1.3039    -0.5132 C.ar    
   6 C6             1.5567     2.1898    -0.4616 C.ar    
   7 C7             0.8739    -1.9811     0.0358 C.ar    
   8 C8            -0.0412    -2.4435     0.9945 C.ar    
   9 C9            -0.2281    -3.8165     1.1151 C.ar    
  10 N10            0.4572    -4.6311     0.3288 N.ar    
  11 C11            1.3097    -4.1617    -0.5621 C.ar    
  12 N12            1.5174    -2.8697    -0.7180 N.ar    
  13 Cl13           2.1795    -5.2803    -1.5650 Cl      
  14 N14            3.9222     1.7835    -0.7272 N.am    
  15 C15            4.8513     0.9863    -1.2908 C.2     
  16 C16            6.2455     1.4423    -1.3957 C.2     
  17 C17            7.1625     0.6555    -1.9519 C.2     
  18 O18            4.5366    -0.1101    -1.7128 O.2     
  19 N19           -0.7440    -1.5499     1.8051 N.pl3   
  20 C20           -0.0761    -0.8422     2.8072 C.ar    
  21 C21           -0.7890    -0.0269     3.6764 C.ar    
  22 C22           -0.1241     0.6721     4.6679 C.ar    
  23 C23            1.2505     0.5586     4.7930 C.ar    
  24 C24            1.9616    -0.2525     3.9278 C.ar    
  25 C25            1.3025    -0.9571     2.9398 C.ar    
  26 F26           -0.8159     1.4661     5.5141 F       
  27 H27           -0.5539     2.4122    -0.2150 H       
  28 H28           -0.9557     0.0045     0.0768 H       
  29 H29            3.2373    -0.7464    -0.3907 H       
  30 H30            1.7282     3.2487    -0.5876 H       
  31 H31           -0.9229    -4.2126     1.8409 H       
  32 H32            4.1525     2.6900    -0.4699 H       
  33 H33            6.5249     2.4159    -1.0210 H       
  34 H34            8.1864     0.9903    -2.0289 H       
  35 H35            6.8831    -0.3182    -2.3266 H       
  36 H36           -1.6962    -1.4206     1.6723 H       
  37 H37           -1.8609     0.0616     3.5782 H       
  38 H38            1.7682     1.1050     5.5675 H       
  39 H39            3.0335    -0.3386     4.0277 H       
  40 H40            1.8593    -1.5902     2.2648 H       
@<TRIPOS>BOND
   1    1    2 ar
   2    1    6 ar
   3    1   27 1
   4    2    3 ar
   5    2   28 1
   6    3    4 ar
   7    3    7 1
   8    4    5 ar
   9    4   29 1
  10    5    6 ar
  11    5   14 1
  12    6   30 1
  13    7    8 ar
  14    7   12 ar
  15    8    9 ar
  16    8   19 1
  17    9   10 ar
  18    9   31 1
  19   10   11 ar
  20   11   12 ar
  21   11   13 1
  22   14   15 am
  23   14   32 1
  24   15   16 1
  25   15   18 2
  26   16   17 2
  27   16   33 1
  28   17   34 1
  29   17   35 1
  30   19   20 1
  31   19   36 1
  32   20   21 ar
  33   20   25 ar
  34   21   22 ar
  35   21   37 1
  36   22   23 ar
  37   22   26 1
  38   23   24 ar
  39   23   38 1
  40   24   25 ar
  41   24   39 1
  42   25   40 1

#	End of record

