#	Name: ASD01320134
#	Creating user name:	WinNT
#	Creation time:	15. 06. 2019 19:16

#	Modifying user name:	WinNT
#	Modification time:	15. 06. 2019 19:16

#	Program:	/corina/corina34_cracker 3.40 0067  02.08.2006

@<TRIPOS>MOLECULE
ASD01320134
  48   50    0    0    0
SMALL
NO_CHARGES


@<TRIPOS>ATOM
   1 Cl1            3.5140     1.8132     2.1991 Cl      
   2 C2            -0.1823     1.1423     0.8368 C.ar    
   3 C3            -0.0813    -0.1243     0.2762 C.ar    
   4 C4             1.1219    -0.7996     0.3036 C.ar    
   5 C5             2.2391    -0.2065     0.8968 C.ar    
   6 C6             2.1309     1.0690     1.4595 C.ar    
   7 C7             0.9227     1.7349     1.4263 C.ar    
   8 C8             3.5284    -0.9236     0.9297 C.2     
   9 N9             3.6298    -2.1531     0.3870 N.am    
  10 C10            4.8073    -2.8080     0.4171 C.2     
  11 N11            4.9087    -4.0375    -0.1257 N.am    
  12 C12            6.1579    -4.6687    -0.2028 C.ar    
  13 C13            7.3043    -3.9176    -0.4105 C.ar    
  14 C14            8.5372    -4.5433    -0.4859 C.ar    
  15 C15            8.6282    -5.9182    -0.3544 C.ar    
  16 C16            7.4884    -6.6734    -0.1471 C.ar    
  17 C17            6.2511    -6.0535    -0.0651 C.ar    
  18 O18            5.7780    -2.2898     0.9338 O.2     
  19 O19            4.4989    -0.4055     1.4463 O.2     
  20 N20            5.0965    -6.8167     0.1501 N.3     
  21 C21            4.5059    -6.5192     1.4612 C.3     
  22 C22            5.3796    -8.2506     0.0082 C.3     
  23 C23            4.0732    -9.0418     0.1051 C.3     
  24 C24            3.1734    -7.2587     1.6015 C.3     
  25 C25            3.4133    -8.7642     1.4587 C.3     
  26 C26            2.0968    -9.4936     1.5361 C.2     
  27 O27            1.7234   -10.1667     0.6049 O.2     
  28 O28            1.3391    -9.3953     2.6397 O.3     
  29 F29           -1.1628    -0.6965    -0.2966 F       
  30 F30            9.6537    -3.8102    -0.6888 F       
  31 F31           -1.3611     1.8014     0.8023 F       
  32 H32            1.1996    -1.7847    -0.1323 H       
  33 H33            0.8383     2.7202     1.8604 H       
  34 H34            2.8552    -2.5666    -0.0253 H       
  35 H35            4.1172    -4.4855    -0.4629 H       
  36 H36            7.2358    -2.8447    -0.5138 H       
  37 H37            9.5917    -6.4024    -0.4142 H       
  38 H38            7.5626    -7.7460    -0.0452 H       
  39 H39            5.1863    -6.8443     2.2482 H       
  40 H40            4.3365    -5.4460     1.5482 H       
  41 H41            5.8448    -8.4349    -0.9602 H       
  42 H42            6.0559    -8.5676     0.8020 H       
  43 H43            3.4016    -8.7351    -0.6968 H       
  44 H44            4.2854   -10.1072     0.0154 H       
  45 H45            2.7428    -7.0501     2.5809 H       
  46 H46            2.4877    -6.9240     0.8231 H       
  47 H47            4.0681    -9.1064     2.2601 H       
  48 H48            0.5029    -9.8811     2.6428 H       
@<TRIPOS>BOND
   1    1    6 1
   2    2    3 ar
   3    2    7 ar
   4    2   31 1
   5    3    4 ar
   6    3   29 1
   7    4    5 ar
   8    4   32 1
   9    5    6 ar
  10    5    8 1
  11    6    7 ar
  12    7   33 1
  13    8    9 am
  14    8   19 2
  15    9   10 am
  16    9   34 1
  17   10   11 am
  18   10   18 2
  19   11   12 1
  20   11   35 1
  21   12   13 ar
  22   12   17 ar
  23   13   14 ar
  24   13   36 1
  25   14   15 ar
  26   14   30 1
  27   15   16 ar
  28   15   37 1
  29   16   17 ar
  30   16   38 1
  31   17   20 1
  32   20   21 1
  33   20   22 1
  34   21   24 1
  35   21   39 1
  36   21   40 1
  37   22   23 1
  38   22   41 1
  39   22   42 1
  40   23   25 1
  41   23   43 1
  42   23   44 1
  43   24   25 1
  44   24   45 1
  45   24   46 1
  46   25   26 1
  47   25   47 1
  48   26   27 2
  49   26   28 1
  50   28   48 1

#	End of record

