#	Name: ASD00071056
#	Creating user name:	WinNT
#	Creation time:	15. 06. 2019 18:30

#	Modifying user name:	WinNT
#	Modification time:	15. 06. 2019 18:30

#	Program:	/corina/corina34_cracker 3.40 0067  02.08.2006

@<TRIPOS>MOLECULE
ASD00071056
  49   52    0    0    0
SMALL
NO_CHARGES


@<TRIPOS>ATOM
   1 N1            -0.1099     1.1196     0.4099 N.ar    
   2 C2             0.0187    -0.1617     0.1344 C.ar    
   3 C3             1.2537    -0.7121    -0.2357 C.ar    
   4 C4             2.3554     0.0857    -0.3168 C.ar    
   5 C5             2.2113     1.4566    -0.0210 C.ar    
   6 C6             3.3063     2.3320    -0.0852 C.ar    
   7 C7             3.1275     3.6651     0.2111 C.ar    
   8 C8             1.8642     4.1502     0.5745 C.ar    
   9 C9             0.7884     3.3178     0.6433 C.ar    
  10 C10            0.9366     1.9524     0.3474 C.ar    
  11 N11           -1.0947    -0.9867     0.2128 N.pl3   
  12 N12            4.2157     4.5416     0.1491 N.3     
  13 C13            5.2764     4.1312     1.0806 C.3     
  14 C14            6.4692     5.0803     0.9376 C.3     
  15 O15            6.0342     6.4228     1.1698 O.3     
  16 C16            5.0019     6.8556     0.2797 C.3     
  17 C17            3.7943     5.9245     0.4161 C.3     
  18 C18            1.3629    -2.1834    -0.5428 C.3     
  19 C19            0.9986    -2.4239    -1.9853 C.ar    
  20 C20            1.9395    -2.2143    -2.9833 C.ar    
  21 C21            1.6010    -2.4364    -4.3100 C.ar    
  22 C22            0.3285    -2.8657    -4.6345 C.ar    
  23 C23           -0.6073    -3.0733    -3.6384 C.ar    
  24 C24           -0.2705    -2.8584    -2.3145 C.ar    
  25 O25            3.1904    -1.7917    -2.6615 O.3     
  26 C26            4.1069    -1.5968    -3.7404 C.3     
  27 F27            1.7113     5.4616     0.8609 F       
  28 H28            3.3146    -0.3219    -0.6000 H       
  29 H29            4.2821     1.9629    -0.3644 H       
  30 H30           -0.1787     3.7075     0.9251 H       
  31 H31           -1.9724    -0.6036     0.3674 H       
  32 H32           -0.9952    -1.9464     0.1130 H       
  33 H33            4.8993     4.1721     2.1025 H       
  34 H34            5.5911     3.1137     0.8486 H       
  35 H35            7.2351     4.8147     1.6662 H       
  36 H36            6.8798     4.9997    -0.0689 H       
  37 H37            4.7066     7.8740     0.5324 H       
  38 H38            5.3698     6.8266    -0.7460 H       
  39 H39            3.0270     6.2160    -0.3011 H       
  40 H40            3.3934     5.9940     1.4273 H       
  41 H41            2.3855    -2.5167    -0.3660 H       
  42 H42            0.6826    -2.7405     0.1014 H       
  43 H43            2.3315    -2.2737    -5.0886 H       
  44 H44            0.0645    -3.0388    -5.6674 H       
  45 H45           -1.6017    -3.4081    -3.8942 H       
  46 H46           -1.0019    -3.0260    -1.5376 H       
  47 H47            4.2438    -2.5368    -4.2751 H       
  48 H48            3.7103    -0.8451    -4.4228 H       
  49 H49            5.0657    -1.2600    -3.3463 H       
@<TRIPOS>BOND
   1    1    2 ar
   2    1   10 ar
   3    2    3 ar
   4    2   11 1
   5    3    4 ar
   6    3   18 1
   7    4    5 ar
   8    4   28 1
   9    5    6 ar
  10    5   10 ar
  11    6    7 ar
  12    6   29 1
  13    7    8 ar
  14    7   12 1
  15    8    9 ar
  16    8   27 1
  17    9   10 ar
  18    9   30 1
  19   11   31 1
  20   11   32 1
  21   12   13 1
  22   12   17 1
  23   13   14 1
  24   13   33 1
  25   13   34 1
  26   14   15 1
  27   14   35 1
  28   14   36 1
  29   15   16 1
  30   16   17 1
  31   16   37 1
  32   16   38 1
  33   17   39 1
  34   17   40 1
  35   18   19 1
  36   18   41 1
  37   18   42 1
  38   19   20 ar
  39   19   24 ar
  40   20   21 ar
  41   20   25 1
  42   21   22 ar
  43   21   43 1
  44   22   23 ar
  45   22   44 1
  46   23   24 ar
  47   23   45 1
  48   24   46 1
  49   25   26 1
  50   26   47 1
  51   26   48 1
  52   26   49 1

#	End of record

