#	Name: ASD01410430
#	Creating user name:	WinNT
#	Creation time:	15. 06. 2019 19:17

#	Modifying user name:	WinNT
#	Modification time:	15. 06. 2019 19:17

#	Program:	/corina/corina34_cracker 3.40 0067  02.08.2006

@<TRIPOS>MOLECULE
ASD01410430
  57   61    0    0    0
SMALL
NO_CHARGES


@<TRIPOS>ATOM
   1 C1            -0.6810     3.5566    -2.8757 C.ar    
   2 C2            -0.9100     2.8879    -4.0798 C.ar    
   3 C3            -2.0484     2.1250    -4.2389 C.ar    
   4 C4            -2.9652     2.0201    -3.2090 C.ar    
   5 C5            -2.7465     2.6817    -2.0081 C.ar    
   6 C6            -1.6037     3.4454    -1.8355 C.ar    
   7 C7            -1.3643     4.1639    -0.5327 C.3     
   8 O8            -3.6513     2.5758    -0.9997 O.3     
   9 C9            -4.8001     1.8910    -1.2424 C.ar    
  10 C10           -4.7819     0.4994    -1.2801 C.ar    
  11 C11           -5.9372    -0.2121    -1.5244 C.ar    
  12 C12           -7.1311     0.4638    -1.7351 C.ar    
  13 C13           -7.1528     1.8703    -1.6977 C.ar    
  14 C14           -5.9821     2.5802    -1.4450 C.ar    
  15 F15           -2.4108     3.8849     0.3529 F       
  16 F16           -0.1554     3.7315     0.0230 F       
  17 F17           -1.3045     5.5422    -0.7644 F       
  18 N18           -8.3148    -0.2045    -1.9842 N.pl3   
  19 C19           -9.4546     0.4787    -2.1846 C.2     
  20 N20           -9.5260     1.7808    -2.1599 N.2     
  21 C21           -8.4426     2.5457    -1.9274 C.2     
  22 O22           -8.5261     3.7616    -1.9071 O.2     
  23 C23           -8.3271    -1.6687    -2.0304 C.3     
  24 C24           -8.7529    -2.2101    -0.6900 C.ar    
  25 C25          -10.0983    -2.3140    -0.3812 C.ar    
  26 C26          -10.4894    -2.8113     0.8501 C.ar    
  27 C27           -9.5351    -3.2051     1.7724 C.ar    
  28 C28           -8.1897    -3.1020     1.4632 C.ar    
  29 C29           -7.7987    -2.6088     0.2302 C.ar    
  30 F30           -6.4856    -2.5082    -0.0715 F       
  31 F31           -9.9169    -3.6895     2.9744 F       
  32 F32          -11.0296    -1.9297    -1.2813 F       
  33 C33            0.5380     4.3745    -2.7016 C.2     
  34 N34            1.4638     4.4210    -3.6800 N.am    
  35 O35            0.7054     5.0053    -1.6760 O.2     
  36 C36            2.6619     5.1137    -3.4768 C.ar    
  37 C37            3.2519     5.1502    -2.2160 C.ar    
  38 C38            4.4384     5.8494    -2.0646 C.ar    
  39 C39            4.9934     6.4827    -3.1608 C.ar    
  40 N40            4.4095     6.4291    -4.3422 N.ar    
  41 C41            3.2837     5.7706    -4.5311 C.ar    
  42 H42           -0.1964     2.9682    -4.8865 H       
  43 H43           -2.2243     1.6083    -5.1708 H       
  44 H44           -3.8548     1.4217    -3.3393 H       
  45 H45           -3.8536    -0.0279    -1.1167 H       
  46 H46           -5.9133    -1.2915    -1.5521 H       
  47 H47           -5.9953     3.6597    -1.4152 H       
  48 H48          -10.3589    -0.0797    -2.3767 H       
  49 H49           -9.0275    -2.0022    -2.7961 H       
  50 H50           -7.3278    -2.0331    -2.2687 H       
  51 H51          -11.5391    -2.8917     1.0913 H       
  52 H52           -7.4452    -3.4089     2.1829 H       
  53 H53            1.2993     3.9740    -4.5250 H       
  54 H54            2.7957     4.6463    -1.3767 H       
  55 H55            4.9238     5.8993    -1.1012 H       
  56 H56            5.9180     7.0294    -3.0482 H       
  57 H57            2.8353     5.7490    -5.5134 H       
@<TRIPOS>BOND
   1    1    2 ar
   2    1   33 1
   3    1    6 ar
   4    2    3 ar
   5    2   42 1
   6    3    4 ar
   7    3   43 1
   8    4    5 ar
   9    4   44 1
  10    5    6 ar
  11    5    8 1
  12    6    7 1
  13    7   15 1
  14    7   16 1
  15    7   17 1
  16    8    9 1
  17    9   10 ar
  18    9   14 ar
  19   10   11 ar
  20   10   45 1
  21   11   12 ar
  22   11   46 1
  23   12   13 ar
  24   12   18 1
  25   13   14 ar
  26   13   21 1
  27   14   47 1
  28   18   19 1
  29   18   23 1
  30   19   20 2
  31   19   48 1
  32   20   21 1
  33   21   22 2
  34   23   24 1
  35   23   49 1
  36   23   50 1
  37   24   25 ar
  38   24   29 ar
  39   25   26 ar
  40   25   32 1
  41   26   27 ar
  42   26   51 1
  43   27   28 ar
  44   27   31 1
  45   28   29 ar
  46   28   52 1
  47   29   30 1
  48   33   34 am
  49   33   35 2
  50   34   36 1
  51   34   53 1
  52   36   37 ar
  53   36   41 ar
  54   37   38 ar
  55   37   54 1
  56   38   39 ar
  57   38   55 1
  58   39   40 ar
  59   39   56 1
  60   40   41 ar
  61   41   57 1

#	End of record

