#	Name: ASD00190026
#	Creating user name:	WinNT
#	Creation time:	15. 06. 2019 18:33

#	Modifying user name:	WinNT
#	Modification time:	15. 06. 2019 18:33

#	Program:	/corina/corina34_cracker 3.40 0067  02.08.2006

@<TRIPOS>MOLECULE
ASD00190026
  45   49    0    0    0
SMALL
NO_CHARGES


@<TRIPOS>ATOM
   1 C1            -0.0142     1.3575     0.0071 C.ar    
   2 C2             0.0050    -0.0052    -0.0079 C.ar    
   3 C3             1.2069    -0.7047    -0.0374 C.ar    
   4 C4             2.3990    -0.0413    -0.0522 C.ar    
   5 C5             2.4138     1.3571    -0.0375 C.ar    
   6 C6             1.1926     2.0734    -0.0074 C.ar    
   7 C7             3.6589     2.1125    -0.0519 C.ar    
   8 C8             3.5789     3.5086    -0.0350 C.ar    
   9 C9             2.3057     4.1210    -0.0046 C.ar    
  10 N10            1.1984     3.4146     0.0077 N.ar    
  11 N11            4.9900     1.8002    -0.0800 N.pl3   
  12 C12            5.6815     2.9727    -0.0798 C.2     
  13 N13            4.8504     3.9750    -0.0534 N.2     
  14 N14            2.2232     5.5040     0.0126 N.pl3   
  15 C15            0.9768     6.1312    -0.0772 C.ar    
  16 C16            7.1835     3.0928    -0.1059 C.3     
  17 C17            7.7451     2.9936     1.3233 C.3     
  18 C18            8.6769     1.7644     1.3463 C.3     
  19 C19            9.0940     1.5762    -0.1334 C.3     
  20 C20            7.7937     1.9204    -0.9015 C.3     
  21 C21            0.7429     7.3155     0.6095 C.ar    
  22 C22           -0.4890     7.9338     0.5190 C.ar    
  23 C23           -1.4903     7.3743    -0.2546 C.ar    
  24 C24           -1.2603     6.1932    -0.9408 C.ar    
  25 C25           -0.0278     5.5738    -0.8581 C.ar    
  26 Cl26          -3.0376     8.1536    -0.3650 Cl      
  27 Cl27          -2.5192     5.4941    -1.9105 Cl      
  28 H28           -0.9562     1.8853     0.0255 H       
  29 H29           -0.9273    -0.5502     0.0038 H       
  30 H30            1.1963    -1.7846    -0.0484 H       
  31 H31            3.3270    -0.5934    -0.0748 H       
  32 H32            5.3709     0.9083    -0.0966 H       
  33 H33            3.0301     6.0371     0.0870 H       
  34 H34            7.4741     4.0419    -0.5562 H       
  35 H35            8.3089     3.8943     1.5662 H       
  36 H36            6.9312     2.8586     2.0357 H       
  37 H37            9.5512     1.9601     1.9671 H       
  38 H38            8.1411     0.8862     1.7063 H       
  39 H39            9.8943     2.2664    -0.4000 H       
  40 H40            9.3927     0.5451    -0.3224 H       
  41 H41            7.1152     1.0673    -0.9045 H       
  42 H42            8.0234     2.2299    -1.9210 H       
  43 H43            1.5237     7.7527     1.2142 H       
  44 H44           -0.6709     8.8547     1.0530 H       
  45 H45            0.1516     4.6531    -1.3934 H       
@<TRIPOS>BOND
   1    1    2 ar
   2    1    6 ar
   3    1   28 1
   4    2    3 ar
   5    2   29 1
   6    3    4 ar
   7    3   30 1
   8    4    5 ar
   9    4   31 1
  10    5    6 ar
  11    5    7 ar
  12    6   10 ar
  13    7    8 ar
  14    7   11 1
  15    8    9 ar
  16    8   13 1
  17    9   10 ar
  18    9   14 1
  19   11   12 1
  20   11   32 1
  21   12   13 2
  22   12   16 1
  23   14   15 1
  24   14   33 1
  25   15   21 ar
  26   15   25 ar
  27   16   17 1
  28   16   20 1
  29   16   34 1
  30   17   18 1
  31   17   35 1
  32   17   36 1
  33   18   19 1
  34   18   37 1
  35   18   38 1
  36   19   20 1
  37   19   39 1
  38   19   40 1
  39   20   41 1
  40   20   42 1
  41   21   22 ar
  42   21   43 1
  43   22   23 ar
  44   22   44 1
  45   23   24 ar
  46   23   26 1
  47   24   25 ar
  48   24   27 1
  49   25   45 1

#	End of record

