#	Name: ASD01901436
#	Creating user name:	WinNT
#	Creation time:	15. 06. 2019 19:53

#	Modifying user name:	WinNT
#	Modification time:	15. 06. 2019 19:53

#	Program:	/corina/corina34_cracker 3.40 0067  02.08.2006

@<TRIPOS>MOLECULE
ASD01901436
  39   42    0    0    0
SMALL
NO_CHARGES


@<TRIPOS>ATOM
   1 C1            -0.0168     1.3891     0.0097 C.ar    
   2 N2             1.1077     2.0749     0.0026 N.ar    
   3 C3             2.2854     1.4807    -0.0118 C.ar    
   4 C4             2.3879     0.1019    -0.0202 C.ar    
   5 C5             1.2339    -0.6631    -0.0133 C.ar    
   6 C6             0.0021    -0.0041     0.0020 C.ar    
   7 C7            -1.2659    -0.7755     0.0105 C.2     
   8 N8            -2.7224    -2.2680     1.1175 N.2     
   9 C9            -1.6019    -1.5883     1.1149 C.2     
  10 C10           -2.1273    -0.7046    -1.0483 C.2     
  11 N11           -3.2834    -1.4261    -1.0084 N.pl3   
  12 C12           -3.5712    -2.2086     0.0802 C.2     
  13 C13           -4.3221    -1.5616    -1.8898 C.2     
  14 C14           -5.2092    -2.4111    -1.3297 C.2     
  15 N15           -4.7399    -2.7941    -0.1386 N.2     
  16 C16           -6.5111    -2.8545    -1.9456 C.3     
  17 O17           -6.6685    -2.2355    -3.2240 O.3     
  18 C18           -7.7975    -2.5312    -3.9169 C.ar    
  19 C19           -8.0041    -1.9647    -5.1677 C.ar    
  20 N20           -8.6867    -3.3600    -3.3962 N.ar    
  21 C21           -9.7975    -3.6750    -4.0350 C.ar    
  22 C22          -10.0718    -3.1445    -5.2823 C.ar    
  23 C23           -9.1592    -2.2737    -5.8651 C.ar    
  24 C24            3.5385     2.3178    -0.0198 C.3     
  25 F25            3.1977     3.6688     0.1053 F       
  26 F26            4.3570     1.9422     1.0509 F       
  27 F27            4.2243     2.1193    -1.2230 F       
  28 F28          -11.2115    -3.4732    -5.9290 F       
  29 H29           -0.9620     1.9114     0.0260 H       
  30 H30            3.3577    -0.3733    -0.0324 H       
  31 H31            1.2846    -1.7419    -0.0200 H       
  32 H32           -0.9330    -1.6505     1.9605 H       
  33 H33           -1.8959    -0.0865    -1.9032 H       
  34 H34           -4.4144    -1.0797    -2.8519 H       
  35 H35           -6.5064    -3.9379    -2.0647 H       
  36 H36           -7.3375    -2.5638    -1.2970 H       
  37 H37           -7.2732    -1.2915    -5.5908 H       
  38 H38          -10.5008    -4.3555    -3.5783 H       
  39 H39           -9.3468    -1.8477    -6.8397 H       
@<TRIPOS>BOND
   1    1    6 ar
   2    1    2 ar
   3    1   29 1
   4    2    3 ar
   5    3    4 ar
   6    3   24 1
   7    4    5 ar
   8    4   30 1
   9    5    6 ar
  10    5   31 1
  11    6    7 1
  12    7   10 2
  13    7    9 1
  14    8    9 2
  15    8   12 1
  16    9   32 1
  17   10   11 1
  18   10   33 1
  19   11   13 1
  20   11   12 1
  21   12   15 2
  22   13   14 2
  23   13   34 1
  24   14   15 1
  25   14   16 1
  26   16   17 1
  27   16   35 1
  28   16   36 1
  29   17   18 1
  30   18   20 ar
  31   18   19 ar
  32   19   23 ar
  33   19   37 1
  34   20   21 ar
  35   21   22 ar
  36   21   38 1
  37   22   23 ar
  38   22   28 1
  39   23   39 1
  40   24   25 1
  41   24   26 1
  42   24   27 1

#	End of record

