#	Name: ASD01882829
#	Creating user name:	WinNT
#	Creation time:	15. 06. 2019 19:45

#	Modifying user name:	WinNT
#	Modification time:	15. 06. 2019 19:45

#	Program:	/corina/corina34_cracker 3.40 0067  02.08.2006

@<TRIPOS>MOLECULE
ASD01882829
  33   35    0    0    0
SMALL
NO_CHARGES


@<TRIPOS>ATOM
   1 C1            -0.0171     1.4106     0.0098 C.ar    
   2 C2             0.0021    -0.0041     0.0020 C.ar    
   3 C3             1.1803    -0.7036    -0.0340 C.ar    
   4 C4             2.3866    -0.0217    -0.0631 C.ar    
   5 C5             2.3913     1.3542    -0.0448 C.ar    
   6 C6             1.1995     2.0888     0.0018 C.ar    
   7 Br7            4.0173    -0.9771    -0.1269 Br      
   8 N8            -1.2306     1.9572    -0.0054 N.2     
   9 N9             1.3570     3.4578     0.0635 N.am    
  10 C10           -1.9514     2.8743     0.4087 C.2     
  11 C11            0.8576     4.3088     0.9517 C.2     
  12 C12           -1.5680     4.1030     1.1624 C.3     
  13 C13           -0.2407     3.8799     1.8960 C.3     
  14 C14           -3.3890     2.7326     0.1159 C.ar    
  15 O15            1.2878     5.4415     1.0058 O.2     
  16 C16           -5.2398     1.5314    -0.8394 C.ar    
  17 N17           -6.0708     2.4807    -0.4232 N.ar    
  18 C18           -5.6473     3.5395     0.2338 C.ar    
  19 C19           -4.3069     3.7083     0.5274 C.ar    
  20 C20           -3.8740     1.6221    -0.5862 C.ar    
  21 C21           -5.7552     0.4000    -1.5500 C.1     
  22 N22           -6.1640    -0.4976    -2.1136 N.1     
  23 H23           -0.9325    -0.5449     0.0253 H       
  24 H24            1.1686    -1.7835    -0.0393 H       
  25 H25            3.3348     1.8794    -0.0669 H       
  26 H26            1.9051     3.8505    -0.6339 H       
  27 H27           -1.4609     4.9350     0.4664 H       
  28 H28           -2.3464     4.3394     1.8879 H       
  29 H29           -0.1260     2.8252     2.1462 H       
  30 H30           -0.2096     4.4843     2.8025 H       
  31 H31           -6.3591     4.2865     0.5527 H       
  32 H32           -3.9714     4.5812     1.0676 H       
  33 H33           -3.1999     0.8496    -0.9256 H       
@<TRIPOS>BOND
   1    1    2 ar
   2    1    6 ar
   3    1    8 1
   4    2    3 ar
   5    2   23 1
   6    3    4 ar
   7    3   24 1
   8    4    5 ar
   9    4    7 1
  10    5    6 ar
  11    5   25 1
  12    6    9 1
  13    8   10 2
  14    9   11 am
  15    9   26 1
  16   10   12 1
  17   10   14 1
  18   11   13 1
  19   11   15 2
  20   12   13 1
  21   12   27 1
  22   12   28 1
  23   13   29 1
  24   13   30 1
  25   14   20 ar
  26   14   19 ar
  27   16   17 ar
  28   16   20 ar
  29   16   21 1
  30   17   18 ar
  31   18   19 ar
  32   18   31 1
  33   19   32 1
  34   20   33 1
  35   21   22 3

#	End of record

