#	Name: ASD01811845
#	Creating user name:	WinNT
#	Creation time:	15. 06. 2019 19:27

#	Modifying user name:	WinNT
#	Modification time:	15. 06. 2019 19:27

#	Program:	/corina/corina34_cracker 3.40 0067  02.08.2006

@<TRIPOS>MOLECULE
ASD01811845
  58   62    0    0    0
SMALL
NO_CHARGES


@<TRIPOS>ATOM
   1 C1             0.3839     2.1456     0.1672 C.3     
   2 C2             0.2474     0.6669    -0.0816 C.2     
   3 C3             0.8929    -0.1962     0.6986 C.2     
   4 C4             1.7552     0.3466     1.7699 C.ar    
   5 C5             2.1325     1.6905     1.7092 C.ar    
   6 N6             1.7308     2.4767     0.6349 N.3     
   7 C7             1.8392     3.9055     0.9586 C.3     
   8 C8             2.1844    -0.4675     2.8230 C.ar    
   9 C9             2.9680     0.0431     3.8175 C.ar    
  10 C10            3.3432     1.3876     3.7903 C.ar    
  11 C11            2.9226     2.2260     2.7338 C.ar    
  12 C12            4.1794     1.9780     4.8455 C.2     
  13 N13            4.4871     3.2911     4.7366 N.am    
  14 C14            4.0325     4.0242     3.6855 C.2     
  15 N15            3.2953     3.5300     2.7381 N.2     
  16 O16            4.5795     1.3108     5.7819 O.2     
  17 C17            5.3174     3.9292     5.7611 C.3     
  18 C18            4.5359     5.0722     6.4120 C.3     
  19 C19            5.4031     5.7385     7.4819 C.3     
  20 C20            6.6742     6.2930     6.8356 C.3     
  21 C21            7.4558     5.1500     6.1848 C.3     
  22 C22            6.5886     4.4837     5.1148 C.3     
  23 O23            3.3487     4.5543     7.0156 O.3     
  24 C24            1.7787    -1.9184     2.8604 C.3     
  25 C25            0.4391    -2.0481     3.5385 C.ar    
  26 C26           -0.7159    -2.1009     2.7803 C.ar    
  27 C27           -1.9451    -2.2197     3.3994 C.ar    
  28 C28           -2.0200    -2.2862     4.7831 C.ar    
  29 C29           -0.8596    -2.2330     5.5416 C.ar    
  30 C30            0.3676    -2.1198     4.9174 C.ar    
  31 O31           -3.2280    -2.4027     5.3946 O.3     
  32 H32            0.1841     2.6844    -0.7590 H       
  33 H33           -0.3418     2.4502     0.9213 H       
  34 H34           -0.3723     0.3082    -0.8900 H       
  35 H35            0.7898    -1.2615     0.5540 H       
  36 H36            2.8904     4.1917     0.9920 H       
  37 H37            1.3273     4.4909     0.1948 H       
  38 H38            1.3802     4.0940     1.9291 H       
  39 H39            3.2975    -0.5930     4.6257 H       
  40 H40            4.2976     5.0700     3.6366 H       
  41 H41            5.5865     3.1946     6.5201 H       
  42 H42            4.2669     5.8068     5.6530 H       
  43 H43            4.8463     6.5528     7.9456 H       
  44 H44            5.6721     5.0039     8.2409 H       
  45 H45            6.4052     7.0276     6.0766 H       
  46 H46            7.2920     6.7677     7.5979 H       
  47 H47            8.3613     5.5451     5.7243 H       
  48 H48            7.7248     4.4154     6.9438 H       
  49 H49            7.1453     3.6694     4.6511 H       
  50 H50            6.3195     5.2183     4.3558 H       
  51 H51            2.8028     5.2249     7.4484 H       
  52 H52            1.7096    -2.3027     1.8428 H       
  53 H53            2.5233    -2.4897     3.4148 H       
  54 H54           -0.6571    -2.0488     1.7032 H       
  55 H55           -2.8471    -2.2606     2.8068 H       
  56 H56           -0.9152    -2.2845     6.6189 H       
  57 H57            1.2713    -2.0784     5.5074 H       
  58 H58           -3.5124    -3.3165     5.5328 H       
@<TRIPOS>BOND
   1    1    2 1
   2    1    6 1
   3    1   32 1
   4    1   33 1
   5    2    3 2
   6    2   34 1
   7    3    4 1
   8    3   35 1
   9    4    5 ar
  10    4    8 ar
  11    5    6 1
  12    5   11 ar
  13    6    7 1
  14    7   36 1
  15    7   37 1
  16    7   38 1
  17    8    9 ar
  18    8   24 1
  19    9   10 ar
  20    9   39 1
  21   10   11 ar
  22   10   12 1
  23   11   15 1
  24   12   13 am
  25   12   16 2
  26   13   14 1
  27   13   17 1
  28   14   15 2
  29   14   40 1
  30   17   18 1
  31   17   22 1
  32   17   41 1
  33   18   19 1
  34   18   23 1
  35   18   42 1
  36   19   20 1
  37   19   43 1
  38   19   44 1
  39   20   21 1
  40   20   45 1
  41   20   46 1
  42   21   22 1
  43   21   47 1
  44   21   48 1
  45   22   49 1
  46   22   50 1
  47   23   51 1
  48   24   25 1
  49   24   52 1
  50   24   53 1
  51   25   26 ar
  52   25   30 ar
  53   26   27 ar
  54   26   54 1
  55   27   28 ar
  56   27   55 1
  57   28   29 ar
  58   28   31 1
  59   29   30 ar
  60   29   56 1
  61   30   57 1
  62   31   58 1

#	End of record

