#	Name: ASD00450030
#	Creating user name:	WinNT
#	Creation time:	15. 06. 2019 18:36

#	Modifying user name:	WinNT
#	Modification time:	15. 06. 2019 18:36

#	Program:	/corina/corina34_cracker 3.40 0067  02.08.2006

@<TRIPOS>MOLECULE
ASD00450030
  46   47    0    0    0
SMALL
NO_CHARGES


@<TRIPOS>ATOM
   1 C1            -0.5522     1.8705     0.4284 C.ar    
   2 C2            -0.9288     0.5910     0.8655 C.ar    
   3 C3             0.0370    -0.2984     1.3025 C.ar    
   4 C4             1.3735     0.0697     1.3105 C.ar    
   5 C5             1.7572     1.3286     0.8819 C.ar    
   6 C6             0.8050     2.2351     0.4394 C.ar    
   7 C7            -1.5700     2.8207    -0.0436 C.2     
   8 O8            -2.1024     3.5818     0.7421 O.2     
   9 N9            -1.9131     2.8487    -1.3466 N.am    
  10 N10            1.1914     3.4982     0.0090 N.pl3   
  11 C11            2.1880     4.1975     0.6982 C.ar    
  12 C12            2.6620     5.4072     0.2005 C.ar    
  13 C13            2.7021     3.6889     1.8830 C.ar    
  14 C14            3.6864     4.3817     2.5616 C.ar    
  15 C15            4.1603     5.5811     2.0623 C.ar    
  16 C16            3.6469     6.0951     0.8846 C.ar    
  17 F17            2.3080    -0.8063     1.7401 F       
  18 F18            2.1610     5.9086    -0.9496 F       
  19 I19            5.6528     6.6266     3.0960 I       
  20 O20           -2.2357     0.2275     0.8600 O.3     
  21 C21           -2.5446    -1.0902     1.3187 C.3     
  22 C22           -4.0557    -1.3165     1.2398 C.3     
  23 C23           -4.3864    -2.7273     1.7310 C.3     
  24 C24           -5.8975    -2.9536     1.6521 C.3     
  25 O25           -6.2188    -4.2256     2.2184 O.3     
  26 O26           -3.7176    -3.6865     0.9096 O.3     
  27 C27           -3.9221    -2.8847     3.1803 C.3     
  28 H28           -0.2516    -1.2832     1.6391 H       
  29 H29            2.8009     1.6060     0.8922 H       
  30 H30           -1.4885     2.2419    -1.9731 H       
  31 H31           -2.5846     3.4756    -1.6580 H       
  32 H32            0.7702     3.8952    -0.7694 H       
  33 H33            2.3328     2.7525     2.2743 H       
  34 H34            4.0861     3.9859     3.4836 H       
  35 H35            4.0159     7.0342     0.4995 H       
  36 H36           -2.0345    -1.8218     0.6922 H       
  37 H37           -2.2138    -1.2023     2.3512 H       
  38 H38           -4.5659    -0.5848     1.8663 H       
  39 H39           -4.3865    -1.2043     0.2073 H       
  40 H40           -6.4119    -2.1687     2.2066 H       
  41 H41           -6.2146    -2.9295     0.6096 H       
  42 H42           -7.1625    -4.4363     2.2022 H       
  43 H43           -3.9641    -3.6445    -0.0245 H       
  44 H44           -4.4322    -2.1530     3.8067 H       
  45 H45           -4.1577    -3.8898     3.5301 H       
  46 H46           -2.8455    -2.7234     3.2364 H       
@<TRIPOS>BOND
   1    1    2 ar
   2    1    6 ar
   3    1    7 1
   4    2    3 ar
   5    2   20 1
   6    3    4 ar
   7    3   28 1
   8    4    5 ar
   9    4   17 1
  10    5    6 ar
  11    5   29 1
  12    6   10 1
  13    7    8 2
  14    7    9 am
  15    9   30 1
  16    9   31 1
  17   10   11 1
  18   10   32 1
  19   11   13 ar
  20   11   12 ar
  21   12   16 ar
  22   12   18 1
  23   13   14 ar
  24   13   33 1
  25   14   15 ar
  26   14   34 1
  27   15   16 ar
  28   15   19 1
  29   16   35 1
  30   20   21 1
  31   21   22 1
  32   21   36 1
  33   21   37 1
  34   22   23 1
  35   22   38 1
  36   22   39 1
  37   23   24 1
  38   23   26 1
  39   23   27 1
  40   24   25 1
  41   24   40 1
  42   24   41 1
  43   25   42 1
  44   26   43 1
  45   27   44 1
  46   27   45 1
  47   27   46 1

#	End of record

