#	Name: ASD01812330
#	Creating user name:	WinNT
#	Creation time:	15. 06. 2019 19:28

#	Modifying user name:	WinNT
#	Modification time:	15. 06. 2019 19:28

#	Program:	/corina/corina34_cracker 3.40 0067  02.08.2006

@<TRIPOS>MOLECULE
ASD01812330
  53   56    0    0    0
SMALL
NO_CHARGES


@<TRIPOS>ATOM
   1 C1            -0.0168     1.3897     0.0097 C.ar    
   2 C2             0.0021    -0.0041     0.0020 C.ar    
   3 C3             1.1796    -0.6877    -0.0124 C.ar    
   4 C4             2.3927     0.0187    -0.0202 C.ar    
   5 C5             2.3768     1.4381    -0.0129 C.ar    
   6 C6             1.1385     2.1078     0.0025 C.ar    
   7 C7             3.6297    -0.6529    -0.0346 C.ar    
   8 C8             4.7711     0.0956    -0.0411 C.ar    
   9 C9             4.6871     1.4959    -0.0333 C.ar    
  10 N10            3.5238     2.1168    -0.0202 N.ar    
  11 C11            5.9353     2.2963    -0.0400 C.2     
  12 O12            7.0146     1.7386    -0.0521 O.2     
  13 N13            5.8725     3.6426    -0.0327 N.am    
  14 C14            7.1057     4.4335    -0.0393 C.3     
  15 C15            3.6922    -2.1586    -0.0422 C.3     
  16 C16            6.8360     5.8083     0.5800 C.3     
  17 C17            8.1088     6.6551     0.4973 C.3     
  18 O18            8.5189     6.7641    -0.8673 O.3     
  19 C19            8.8303     5.5135    -1.4846 C.3     
  20 C20            7.5865     4.6208    -1.4815 C.3     
  21 C21            3.5763    -2.6591    -1.4590 C.ar    
  22 C22            4.7148    -2.8382    -2.2229 C.ar    
  23 C23            4.6113    -3.2968    -3.5218 C.ar    
  24 C24            3.3637    -3.5777    -4.0597 C.ar    
  25 C25            2.2229    -3.3971    -3.2912 C.ar    
  26 C26            2.3322    -2.9436    -1.9908 C.ar    
  27 O27            3.2592    -4.0285    -5.3375 O.3     
  28 O28            6.4563     5.6494     1.9484 O.3     
  29 C29            1.9431    -4.2972    -5.8251 C.3     
  30 H30           -0.9643     1.9080     0.0170 H       
  31 H31           -0.9302    -0.5493     0.0080 H       
  32 H32            1.1803    -1.7677    -0.0175 H       
  33 H33            1.1059     3.1873     0.0079 H       
  34 H34            5.7363    -0.3889    -0.0518 H       
  35 H35            5.0108     4.0879    -0.0231 H       
  36 H36            7.8728     3.9175     0.5381 H       
  37 H37            4.6417    -2.4850     0.3819 H       
  38 H38            2.8716    -2.5593     0.5529 H       
  39 H39            6.0332     6.3029     0.0333 H       
  40 H40            7.9106     7.6492     0.8978 H       
  41 H41            8.8997     6.1802     1.0778 H       
  42 H42            9.1519     5.6852    -2.5118 H       
  43 H43            9.6307     5.0236    -0.9301 H       
  44 H44            7.8336     3.6504    -1.9121 H       
  45 H45            6.7989     5.0915    -2.0699 H       
  46 H46            5.6858    -2.6191    -1.8038 H       
  47 H47            5.5008    -3.4363    -4.1183 H       
  48 H48            1.2506    -3.6151    -3.7076 H       
  49 H49            1.4445    -2.8029    -1.3921 H       
  50 H50            6.2700     6.4817     2.4041 H       
  51 H51            1.3483    -3.3846    -5.7870 H       
  52 H52            2.0021    -4.6497    -6.8548 H       
  53 H53            1.4752    -5.0621    -5.2054 H       
@<TRIPOS>BOND
   1    1    2 ar
   2    1    6 ar
   3    1   30 1
   4    2    3 ar
   5    2   31 1
   6    3    4 ar
   7    3   32 1
   8    4    5 ar
   9    4    7 ar
  10    5    6 ar
  11    5   10 ar
  12    6   33 1
  13    7    8 ar
  14    7   15 1
  15    8    9 ar
  16    8   34 1
  17    9   10 ar
  18    9   11 1
  19   11   12 2
  20   11   13 am
  21   13   14 1
  22   13   35 1
  23   14   16 1
  24   14   20 1
  25   14   36 1
  26   15   21 1
  27   15   37 1
  28   15   38 1
  29   16   17 1
  30   16   28 1
  31   16   39 1
  32   17   18 1
  33   17   40 1
  34   17   41 1
  35   18   19 1
  36   19   20 1
  37   19   42 1
  38   19   43 1
  39   20   44 1
  40   20   45 1
  41   21   22 ar
  42   21   26 ar
  43   22   23 ar
  44   22   46 1
  45   23   24 ar
  46   23   47 1
  47   24   25 ar
  48   24   27 1
  49   25   26 ar
  50   25   48 1
  51   26   49 1
  52   27   29 1
  53   28   50 1
  54   29   51 1
  55   29   52 1
  56   29   53 1

#	End of record

