#	Name: ASD07932214
#	Creating user name:	WinNT
#	Creation time:	15. 06. 2019 21:14

#	Modifying user name:	WinNT
#	Modification time:	15. 06. 2019 21:14

#	Program:	/corina/corina34_cracker 3.40 0067  02.08.2006

@<TRIPOS>MOLECULE
ASD07932214
  73   75    0    0    0
SMALL
NO_CHARGES


@<TRIPOS>ATOM
   1 Cl1            0.0000     0.0000     0.0000 Cl      
   2 H2             0.0000     1.3700     0.0000 H       
   3 Cl3            5.0000     6.3700     5.0000 Cl      
   4 H4             5.0000     7.7400     5.0000 H       
   5 N5            17.4241    18.6576    19.2667 N.ar    
   6 C6            17.4331    17.3403    19.3265 C.ar    
   7 C7            18.6328    16.6134    19.3107 C.ar    
   8 C8            19.8252    17.2732    19.2319 C.ar    
   9 C9            19.8056    18.6793    19.1684 C.ar    
  10 C10           20.9940    19.4219    19.0855 C.ar    
  11 C11           20.9361    20.7810    19.0253 C.ar    
  12 C12           19.7119    21.4473    19.0448 C.ar    
  13 C13           18.5401    20.7612    19.1245 C.ar    
  14 C14           18.5573    19.3549    19.1885 C.ar    
  15 C15           16.1452    16.6105    19.4130 C.2     
  16 O16           16.1373    15.3968    19.4688 O.2     
  17 N17           14.9834    17.2935    19.4297 N.am    
  18 C18           13.7110    16.5724    19.5151 C.3     
  19 C19           12.5973    17.4301    18.9111 C.3     
  20 C20           11.2684    16.6770    19.0004 C.3     
  21 C21           10.9467    16.3822    20.4668 C.3     
  22 C22           12.0605    15.5246    21.0708 C.3     
  23 C23           13.3893    16.2776    20.9816 C.3     
  24 O24           12.8977    17.7054    17.5415 O.3     
  25 C25           21.1282    16.5162    19.2137 C.3     
  26 N26           21.6599    16.4895    17.8446 N.3     
  27 C27           23.0747    16.0961    17.8371 C.3     
  28 C28           23.6323    16.2196    16.4173 C.3     
  29 C29           22.8274    15.3174    15.4778 C.3     
  30 C30           21.3505    15.7165    15.5409 C.3     
  31 C31           20.8590    15.6076    16.9861 C.3     
  32 C32           23.3332    15.4800    14.0675 C.ar    
  33 C33           22.9807    14.5534    13.1043 C.ar    
  34 C34           23.4510    14.7124    11.8099 C.ar    
  35 C35           24.2618    15.8024    11.5315 C.ar    
  36 C36           24.5719    16.6875    12.5463 C.ar    
  37 N37           24.1024    16.5075    13.7655 N.ar    
  38 C38           23.0900    13.7240    10.7311 C.3     
  39 C39           22.9761    13.9140    15.8963 C.1     
  40 N40           23.0908    12.8310    16.2193 N.1     
  41 H41           18.6131    15.5348    19.3611 H       
  42 H42           21.9490    18.9180    19.0699 H       
  43 H43           21.8515    21.3507    18.9619 H       
  44 H44           19.6935    22.5261    18.9963 H       
  45 H45           17.6003    21.2931    19.1389 H       
  46 H46           14.9898    18.2624    19.3852 H       
  47 H47           13.7870    15.6349    18.9643 H       
  48 H48           12.5213    18.3676    19.4620 H       
  49 H49           10.4749    17.2880    18.5700 H       
  50 H50           11.3443    15.7395    18.4495 H       
  51 H51           10.8708    17.3197    21.0177 H       
  52 H52           10.0000    15.8458    20.5304 H       
  53 H53           11.8313    15.3146    22.1156 H       
  54 H54           12.1364    14.5871    20.5200 H       
  55 H55           14.1828    15.6666    21.4119 H       
  56 H56           13.3134    17.2151    21.5325 H       
  57 H57           12.2327    18.2462    17.0939 H       
  58 H58           21.8438    17.0090    19.8719 H       
  59 H59           20.9604    15.4958    19.5583 H       
  60 H60           23.6365    16.7481    18.5059 H       
  61 H61           23.1664    15.0638    18.1748 H       
  62 H62           23.5536    17.2544    16.0841 H       
  63 H63           24.6782    15.9126    16.4091 H       
  64 H64           21.2358    16.7434    15.1939 H       
  65 H65           20.7660    15.0500    14.9065 H       
  66 H66           20.9610    14.5776    17.3277 H       
  67 H67           19.8115    15.9048    17.0368 H       
  68 H68           22.3473    13.7159    13.3569 H       
  69 H69           24.6463    15.9573    10.5343 H       
  70 H70           25.2028    17.5389    12.3376 H       
  71 H71           22.1721    14.0437    10.2378 H       
  72 H72           23.8968    13.6733    10.0000 H       
  73 H73           22.9399    12.7400    11.1754 H       
@<TRIPOS>BOND
   1    1    2 1
   2    3    4 1
   3    5    6 ar
   4    5   14 ar
   5    6    7 ar
   6    6   15 1
   7    7    8 ar
   8    7   41 1
   9    8    9 ar
  10    8   25 1
  11    9   10 ar
  12    9   14 ar
  13   10   11 ar
  14   10   42 1
  15   11   12 ar
  16   11   43 1
  17   12   13 ar
  18   12   44 1
  19   13   14 ar
  20   13   45 1
  21   15   16 2
  22   15   17 am
  23   17   18 1
  24   17   46 1
  25   18   19 1
  26   18   23 1
  27   18   47 1
  28   19   20 1
  29   19   24 1
  30   19   48 1
  31   20   21 1
  32   20   49 1
  33   20   50 1
  34   21   22 1
  35   21   51 1
  36   21   52 1
  37   22   23 1
  38   22   53 1
  39   22   54 1
  40   23   55 1
  41   23   56 1
  42   24   57 1
  43   25   26 1
  44   25   58 1
  45   25   59 1
  46   26   27 1
  47   26   31 1
  48   27   28 1
  49   27   60 1
  50   27   61 1
  51   28   29 1
  52   28   62 1
  53   28   63 1
  54   29   30 1
  55   29   32 1
  56   29   39 1
  57   30   31 1
  58   30   64 1
  59   30   65 1
  60   31   66 1
  61   31   67 1
  62   32   33 ar
  63   32   37 ar
  64   33   34 ar
  65   33   68 1
  66   34   35 ar
  67   34   38 1
  68   35   36 ar
  69   35   69 1
  70   36   37 ar
  71   36   70 1
  72   38   71 1
  73   38   72 1
  74   38   73 1
  75   39   40 3

#	End of record

