#	Name: ASD08178028
#	Creating user name:	WinNT
#	Creation time:	15. 06. 2019 21:18

#	Modifying user name:	WinNT
#	Modification time:	15. 06. 2019 21:18

#	Program:	/corina/corina34_cracker 3.40 0067  02.08.2006

@<TRIPOS>MOLECULE
ASD08178028
  67   70    0    0    0
SMALL
NO_CHARGES


@<TRIPOS>ATOM
   1 C1            -0.0184     1.5028     0.0103 C.2     
   2 C2             0.0021    -0.0041     0.0020 C.3     
   3 C3            -0.0048    -0.5063    -1.4432 C.3     
   4 S4             0.0198    -2.3201    -1.4532 S.3     
   5 C5             0.0085    -2.7186    -3.2228 C.3     
   6 C6             0.0274    -4.2378    -3.4036 C.3     
   7 C7             0.0180    -4.5688    -4.8738 C.2     
   8 S8            -1.4127    -4.8168    -5.8752 S.3     
   9 C9            -0.3955    -5.1036    -7.2235 C.2     
  10 N10            0.8415    -4.9980    -6.8416 N.2     
  11 N11            1.0589    -4.7169    -5.6302 N.2     
  12 N12           -0.8233    -5.4007    -8.5130 N.am    
  13 C13            0.0799    -5.6063    -9.4920 C.2     
  14 O14            1.2657    -5.5322    -9.2484 O.2     
  15 C15           -0.3836    -5.9282   -10.8894 C.3     
  16 C16            0.8136    -6.1106   -11.7863 C.ar    
  17 C17            0.9829    -5.2929   -12.8879 C.ar    
  18 C18            1.7456    -7.0918   -11.5041 C.ar    
  19 C19            2.8438    -7.2590   -12.3268 C.ar    
  20 C20            3.0098    -6.4453   -13.4319 C.ar    
  21 C21            2.0811    -5.4601   -13.7106 C.ar    
  22 S22            1.3918     2.5625     0.0025 S.3     
  23 N23           -1.0746     2.2524     0.0187 N.2     
  24 N24           -0.8817     3.5001     0.0243 N.2     
  25 C25            0.3474     3.9203     0.0191 C.2     
  26 N26            0.7489     5.2518     0.0242 N.am    
  27 C27           -0.1741     6.2339     0.0349 C.2     
  28 O28           -1.3547     5.9565     0.0402 O.2     
  29 C29            0.2610     7.6767     0.0404 C.3     
  30 C30           -0.9543     8.5678     0.0523 C.ar    
  31 C31           -1.1636     9.4649    -0.9783 C.ar    
  32 C32           -1.8626     8.4841     1.0910 C.ar    
  33 C33           -2.9773     9.3014     1.1019 C.ar    
  34 C34           -3.1835    10.2029     0.0744 C.ar    
  35 C35           -2.2784    10.2823    -0.9674 C.ar    
  36 C36            1.1059     7.9499     1.2864 C.3     
  37 O37            2.3147     7.1908     1.2180 O.3     
  38 C38           -1.2068    -7.2177   -10.8692 C.3     
  39 O39           -2.4014    -7.0085   -10.1135 O.3     
  40 H40            0.9018    -0.3580     0.5054 H       
  41 H41           -0.8780    -0.3822     0.5223 H       
  42 H42           -0.9045    -0.1523    -1.9466 H       
  43 H43            0.8752    -0.1281    -1.9634 H       
  44 H44           -0.8915    -2.3093    -3.6817 H       
  45 H45            0.8882    -2.2851    -3.6985 H       
  46 H46            0.9275    -4.6471    -2.9448 H       
  47 H47           -0.8522    -4.6713    -2.9279 H       
  48 H48           -1.7717    -5.4600    -8.7078 H       
  49 H49           -0.9984    -5.1106   -11.2657 H       
  50 H50            0.2569    -4.5236   -13.1060 H       
  51 H51            1.6158    -7.7275   -10.6407 H       
  52 H52            3.5722    -8.0252   -12.1060 H       
  53 H53            3.8680    -6.5757   -14.0745 H       
  54 H54            2.2108    -4.8244   -14.5740 H       
  55 H55            1.6932     5.4737     0.0200 H       
  56 H56            0.8527     7.8812    -0.8518 H       
  57 H57           -0.4561     9.5275    -1.7919 H       
  58 H58           -1.7015     7.7798     1.8938 H       
  59 H59           -3.6874     9.2355     1.9130 H       
  60 H60           -4.0547    10.8412     0.0827 H       
  61 H61           -2.4395    10.9866    -1.7702 H       
  62 H62            1.3462     9.0119     1.3368 H       
  63 H63            0.5456     7.6615     2.1757 H       
  64 H64            2.9006     7.3151     1.9772 H       
  65 H65           -1.4670    -7.4987   -11.8897 H       
  66 H66           -0.6219    -8.0151   -10.4108 H       
  67 H67           -2.9733    -7.7863   -10.0583 H       
@<TRIPOS>BOND
   1    1    2 1
   2    1   22 1
   3    1   23 2
   4    2    3 1
   5    2   40 1
   6    2   41 1
   7    3    4 1
   8    3   42 1
   9    3   43 1
  10    4    5 1
  11    5    6 1
  12    5   44 1
  13    5   45 1
  14    6    7 1
  15    6   46 1
  16    6   47 1
  17    7    8 1
  18    7   11 2
  19    8    9 1
  20    9   10 2
  21    9   12 1
  22   10   11 1
  23   12   13 am
  24   12   48 1
  25   13   14 2
  26   13   15 1
  27   15   16 1
  28   15   38 1
  29   15   49 1
  30   16   17 ar
  31   16   18 ar
  32   17   21 ar
  33   17   50 1
  34   18   19 ar
  35   18   51 1
  36   19   20 ar
  37   19   52 1
  38   20   21 ar
  39   20   53 1
  40   21   54 1
  41   22   25 1
  42   23   24 1
  43   24   25 2
  44   25   26 1
  45   26   27 am
  46   26   55 1
  47   27   28 2
  48   27   29 1
  49   29   30 1
  50   29   36 1
  51   29   56 1
  52   30   31 ar
  53   30   32 ar
  54   31   35 ar
  55   31   57 1
  56   32   33 ar
  57   32   58 1
  58   33   34 ar
  59   33   59 1
  60   34   35 ar
  61   34   60 1
  62   35   61 1
  63   36   37 1
  64   36   62 1
  65   36   63 1
  66   37   64 1
  67   38   39 1
  68   38   65 1
  69   38   66 1
  70   39   67 1

#	End of record

