#	Name: ASD01882538
#	Creating user name:	WinNT
#	Creation time:	15. 06. 2019 19:44

#	Modifying user name:	WinNT
#	Modification time:	15. 06. 2019 19:44

#	Program:	/corina/corina34_cracker 3.40 0067  02.08.2006

@<TRIPOS>MOLECULE
ASD01882538
  52   55    0    0    0
SMALL
NO_CHARGES


@<TRIPOS>ATOM
   1 C1             1.2805     1.4557     1.0374 C.2     
   2 C2             1.2116     0.0518     1.0671 C.2     
   3 C3             1.5521    -0.6564    -0.0540 C.2     
   4 C4             1.9645     0.0328    -1.2148 C.2     
   5 C5             2.0233     1.3790    -1.2210 C.2     
   6 N6             1.6861     2.0946    -0.1090 N.pl3   
   7 N7             1.2424     3.5550     1.4111 N.2     
   8 N8             1.0198     2.3989     1.9299 N.2     
   9 C9             1.6479     3.4280     0.1750 C.2     
  10 N10            1.4923    -2.0480    -0.0490 N.pl3   
  11 C11            2.7111    -2.8502    -0.2213 C.3     
  12 C12            2.4928    -3.8379    -1.3717 C.3     
  13 C13            1.2317    -4.6611    -1.0996 C.3     
  14 C14            0.0191    -3.7305    -1.0253 C.3     
  15 C15            0.2102    -2.7415     0.1347 C.3     
  16 C16            1.0295    -5.6726    -2.2296 C.3     
  17 F17            2.1372    -6.5245    -2.2967 F       
  18 F18           -0.1232    -6.4253    -1.9811 F       
  19 F19            0.8897    -4.9928    -3.4444 F       
  20 C20            1.3831    -5.3939     0.2086 C.ar    
  21 C21            1.5795    -4.6852     1.3791 C.ar    
  22 C22            1.7184    -5.3574     2.5790 C.ar    
  23 C23            1.6604    -6.7382     2.6085 C.ar    
  24 C24            1.4630    -7.4468     1.4381 C.ar    
  25 C25            1.3198    -6.7745     0.2388 C.ar    
  26 C26            2.0056     4.5501    -0.7653 C.3     
  27 O27            0.8405     4.9581    -1.4850 O.3     
  28 C28            1.0716     6.0232    -2.4092 C.3     
  29 C29           -0.2373     6.3756    -3.1189 C.3     
  30 Cl30           0.7018    -0.7731     2.5070 Cl      
  31 H31            2.2345    -0.5213    -2.1016 H       
  32 H32            2.3405     1.8965    -2.1143 H       
  33 H33            3.5497    -2.1948    -0.4565 H       
  34 H34            2.9201    -3.3991     0.6969 H       
  35 H35            2.3740    -3.2883    -2.3055 H       
  36 H36            3.3525    -4.5037    -1.4477 H       
  37 H37           -0.0764    -3.1819    -1.9623 H       
  38 H38           -0.8819    -4.3197    -0.8548 H       
  39 H39            0.2193    -3.2818     1.0813 H       
  40 H40           -0.6019    -2.0145     0.1344 H       
  41 H41            1.6248    -3.6064     1.3560 H       
  42 H42            1.8726    -4.8037     3.4934 H       
  43 H43            1.7696    -7.2633     3.5458 H       
  44 H44            1.4180    -8.5256     1.4611 H       
  45 H45            1.1619    -7.3279    -0.6751 H       
  46 H46            2.3936     5.3933    -0.1938 H       
  47 H47            2.7651     4.2071    -1.4679 H       
  48 H48            1.4401     6.8970    -1.8718 H       
  49 H49            1.8117     5.7109    -3.1459 H       
  50 H50           -0.0610     7.1880    -3.8239 H       
  51 H51           -0.6059     5.5018    -3.6563 H       
  52 H52           -0.9774     6.6879    -2.3822 H       
@<TRIPOS>BOND
   1    1    2 1
   2    1    6 1
   3    1    8 2
   4    2    3 2
   5    2   30 1
   6    3    4 1
   7    3   10 1
   8    4    5 2
   9    4   31 1
  10    5    6 1
  11    5   32 1
  12    6    9 1
  13    7    8 1
  14    7    9 2
  15    9   26 1
  16   10   11 1
  17   10   15 1
  18   11   12 1
  19   11   33 1
  20   11   34 1
  21   12   13 1
  22   12   35 1
  23   12   36 1
  24   13   14 1
  25   13   16 1
  26   13   20 1
  27   14   15 1
  28   14   37 1
  29   14   38 1
  30   15   39 1
  31   15   40 1
  32   16   17 1
  33   16   18 1
  34   16   19 1
  35   20   21 ar
  36   20   25 ar
  37   21   22 ar
  38   21   41 1
  39   22   23 ar
  40   22   42 1
  41   23   24 ar
  42   23   43 1
  43   24   25 ar
  44   24   44 1
  45   25   45 1
  46   26   27 1
  47   26   46 1
  48   26   47 1
  49   27   28 1
  50   28   29 1
  51   28   48 1
  52   28   49 1
  53   29   50 1
  54   29   51 1
  55   29   52 1

#	End of record

