#	Name: ASD01140725
#	Creating user name:	WinNT
#	Creation time:	15. 06. 2019 19:01

#	Modifying user name:	WinNT
#	Modification time:	15. 06. 2019 19:01

#	Program:	/corina/corina34_cracker 3.40 0067  02.08.2006

@<TRIPOS>MOLECULE
ASD01140725
  35   38    0    0    0
SMALL
NO_CHARGES


@<TRIPOS>ATOM
   1 H1             0.0021    -0.0041     0.0020 H       
   2 C2            -0.0127     1.0858     0.0080 C.3     
   3 H3             1.0099     1.4631     0.0003 H       
   4 H4            -0.5399     1.4469    -0.8751 H       
   5 O5            -0.6816     1.5467     1.1837 O.3     
   6 C6            -1.9754     1.1629     1.3483 C.ar    
   7 C7            -2.5849     0.3546     0.3995 C.ar    
   8 C8            -3.8988    -0.0356     0.5660 C.ar    
   9 C9            -4.6102     0.3809     1.6837 C.ar    
  10 C10           -3.9993     1.1896     2.6332 C.ar    
  11 C11           -2.6838     1.5749     2.4678 C.ar    
  12 N12           -5.9438    -0.0143     1.8530 N.am    
  13 N13           -6.6538    -0.8283     0.9668 N.2     
  14 C14           -7.8708    -1.0255     1.3857 C.2     
  15 C15           -8.0222    -0.2925     2.6633 C.2     
  16 C16           -9.2247    -0.3348     3.3240 C.2     
  17 N17          -10.2713    -1.0246     2.8425 N.pl3   
  18 C18          -10.2226    -1.7392     1.6580 C.ar    
  19 C19          -11.3398    -2.4351     1.2106 C.ar    
  20 C20          -11.2840    -3.1455     0.0283 C.ar    
  21 Br21         -12.8097    -4.0889    -0.5702 Br      
  22 C22          -10.1202    -3.1737    -0.7247 C.ar    
  23 C23           -9.0010    -2.4892    -0.2977 C.ar    
  24 C24           -9.0449    -1.7704     0.8925 C.ar    
  25 C25           -6.7244     0.3326     2.8992 C.2     
  26 O26           -6.4088     1.0301     3.8495 O.2     
  27 H27           -2.0315     0.0308    -0.4696 H       
  28 H28           -4.3733    -0.6642    -0.1730 H       
  29 H29           -4.5520     1.5141     3.5024 H       
  30 H30           -2.2075     2.2007     3.2079 H       
  31 H31           -9.3317     0.2007     4.2558 H       
  32 H32          -11.0991    -1.0224     3.3481 H       
  33 H33          -12.2520    -2.4201     1.7885 H       
  34 H34          -10.0895    -3.7333    -1.6479 H       
  35 H35           -8.0948    -2.5115    -0.8848 H       
@<TRIPOS>BOND
   1    1    2 1
   2    2    3 1
   3    2    4 1
   4    2    5 1
   5    5    6 1
   6    6   11 ar
   7    6    7 ar
   8    7    8 ar
   9    7   27 1
  10    8    9 ar
  11    8   28 1
  12    9   10 ar
  13    9   12 1
  14   10   11 ar
  15   10   29 1
  16   11   30 1
  17   12   25 am
  18   12   13 1
  19   13   14 2
  20   14   24 1
  21   14   15 1
  22   15   16 2
  23   15   25 1
  24   16   17 1
  25   16   31 1
  26   17   18 1
  27   17   32 1
  28   18   24 ar
  29   18   19 ar
  30   19   20 ar
  31   19   33 1
  32   20   21 1
  33   20   22 ar
  34   22   23 ar
  35   22   34 1
  36   23   24 ar
  37   23   35 1
  38   25   26 2

#	End of record

