#	Name: ASD01913253
#	Creating user name:	WinNT
#	Creation time:	15. 06. 2019 20:01

#	Modifying user name:	WinNT
#	Modification time:	15. 06. 2019 20:01

#	Program:	/corina/corina34_cracker 3.40 0067  02.08.2006

@<TRIPOS>MOLECULE
ASD01913253
  43   46    0    0    0
SMALL
NO_CHARGES


@<TRIPOS>ATOM
   1 C1            -5.9294    -2.2196    -0.6622 C.ar    
   2 C2            -4.7207    -2.8763    -0.5429 C.ar    
   3 C3            -4.6738    -4.2521    -0.7077 C.ar    
   4 C4            -5.8535    -4.9243    -0.9889 C.ar    
   5 C5            -7.0273    -4.2029    -1.0942 C.ar    
   6 N6            -7.0335    -2.8955    -0.9308 N.ar    
   7 N7            -4.2715    -0.5460    -0.1865 N.am    
   8 C8            -5.7010    -0.7438    -0.4457 C.3     
   9 C9            -3.6424    -1.8699    -0.2372 C.3     
  10 C10           -3.6544     0.6273     0.0566 C.2     
  11 O11           -2.4758     0.6441     0.3533 O.2     
  12 C12           -4.4112     1.8941    -0.0376 C.ar    
  13 C13           -5.7911     1.8703    -0.2277 C.ar    
  14 C14           -6.4972     3.0700    -0.3149 C.ar    
  15 C15           -5.8160     4.2870    -0.2111 C.ar    
  16 C16           -4.4488     4.3017    -0.0228 C.ar    
  17 C17           -3.7449     3.1169     0.0697 C.ar    
  18 C18           -7.9157     3.0557    -0.5107 C.1     
  19 C19           -9.0786     3.0439    -0.6713 C.1     
  20 C20          -10.4971     3.0295    -0.8671 C.ar    
  21 C21          -11.1977     4.2355    -0.9535 C.ar    
  22 C22          -12.5672     4.2041    -1.1432 C.ar    
  23 C23          -13.1954     2.9696    -1.2408 C.ar    
  24 C24          -12.4416     1.8141    -1.1466 C.ar    
  25 N25          -11.1373     1.8689    -0.9709 N.ar    
  26 C26           -6.5761     5.5848    -0.3054 C.3     
  27 H27           -3.7401    -4.7876    -0.6195 H       
  28 H28           -5.8548    -5.9958    -1.1239 H       
  29 H29           -7.9514    -4.7172    -1.3133 H       
  30 H30           -5.9947    -0.1900    -1.3374 H       
  31 H31           -6.2823    -0.4019     0.4106 H       
  32 H32           -3.1803    -2.1032     0.7220 H       
  33 H33           -2.8891    -1.8846    -1.0249 H       
  34 H34           -6.3116     0.9274    -0.3075 H       
  35 H35           -3.9274     5.2442     0.0568 H       
  36 H36           -2.6758     3.1361     0.2215 H       
  37 H37          -10.6773     5.1784    -0.8730 H       
  38 H38          -13.1356     5.1197    -1.2135 H       
  39 H39          -14.2637     2.9124    -1.3887 H       
  40 H40          -12.9286     0.8531    -1.2223 H       
  41 H41           -6.8998     5.8894     0.6898 H       
  42 H42           -5.9304     6.3541    -0.7288 H       
  43 H43           -7.4479     5.4495    -0.9455 H       
@<TRIPOS>BOND
   1    1    2 ar
   2    1    6 ar
   3    1    8 1
   4    2    3 ar
   5    2    9 1
   6    3    4 ar
   7    3   27 1
   8    4    5 ar
   9    4   28 1
  10    5    6 ar
  11    5   29 1
  12    7    8 1
  13    7    9 1
  14    7   10 am
  15    8   30 1
  16    8   31 1
  17    9   32 1
  18    9   33 1
  19   10   11 2
  20   10   12 1
  21   12   13 ar
  22   12   17 ar
  23   13   14 ar
  24   13   34 1
  25   14   15 ar
  26   14   18 1
  27   15   16 ar
  28   15   26 1
  29   16   17 ar
  30   16   35 1
  31   17   36 1
  32   18   19 3
  33   19   20 1
  34   20   21 ar
  35   20   25 ar
  36   21   22 ar
  37   21   37 1
  38   22   23 ar
  39   22   38 1
  40   23   24 ar
  41   23   39 1
  42   24   25 ar
  43   24   40 1
  44   26   41 1
  45   26   42 1
  46   26   43 1

#	End of record

