#	Name: ASD03091671
#	Creating user name:	WinNT
#	Creation time:	15. 06. 2019 20:31

#	Modifying user name:	WinNT
#	Modification time:	15. 06. 2019 20:31

#	Program:	/corina/corina34_cracker 3.40 0067  02.08.2006

@<TRIPOS>MOLECULE
ASD03091671
  51   54    0    0    0
SMALL
NO_CHARGES


@<TRIPOS>ATOM
   1 C1            -0.0170     1.3998     0.0097 C.ar    
   2 C2            -1.2283     2.0682     0.0306 C.ar    
   3 C3            -2.4087     1.3494     0.0435 C.ar    
   4 C4            -2.3914    -0.0360     0.0356 C.ar    
   5 C5            -1.1918    -0.7183     0.0148 C.ar    
   6 C6             0.0021    -0.0041     0.0020 C.ar    
   7 O7             1.1631     2.0665     0.0021 O.3     
   8 C8             2.2620     1.4580     0.6804 C.3     
   9 N9             2.4081     0.0565     0.2863 N.am    
  10 C10            1.3144    -0.6822    -0.0142 C.2     
  11 C11           -3.6892    -0.8018     0.0501 C.3     
  12 C12           -4.2052    -0.9426    -1.3588 C.ar    
  13 C13           -5.0419     0.0169    -1.8963 C.ar    
  14 C14           -3.8417    -2.0337    -2.1335 C.ar    
  15 C15           -4.3397    -2.1221    -3.4241 C.ar    
  16 C16           -5.1771    -1.1256    -3.8930 C.ar    
  17 N17           -5.4978    -0.0988    -3.1283 N.ar    
  18 O18            1.4088    -1.8630    -0.2883 O.2     
  19 C19            3.7406    -0.5484     0.2167 C.3     
  20 C20            4.0030    -1.0464    -1.2079 C.3     
  21 O21            4.0069     0.0628    -2.1089 O.3     
  22 Cl22          -5.8075    -1.2234    -5.5075 Cl      
  23 C23           -1.2604     3.5748     0.0397 C.3     
  24 C24           -3.7269     2.0794     0.0669 C.3     
  25 C25            3.8163    -1.7320     1.1847 C.3     
  26 O26            5.0972    -2.3558     1.0730 O.3     
  27 C27            5.3782    -2.8828    -0.2252 C.3     
  28 C28            5.3653    -1.7455    -1.2499 C.3     
  29 H29           -1.1800    -1.7983     0.0090 H       
  30 H30            3.1773     1.9966     0.4346 H       
  31 H31            2.0934     1.5120     1.7559 H       
  32 H32           -3.5226    -1.7910     0.4766 H       
  33 H33           -4.4213    -0.2647     0.6532 H       
  34 H34           -5.3260     0.8716    -1.3002 H       
  35 H35           -3.1857    -2.7965    -1.7408 H       
  36 H36           -4.0771    -2.9579    -4.0556 H       
  37 H37            4.4919     0.1931     0.4885 H       
  38 H38            3.2220    -1.7492    -1.4981 H       
  39 H39            4.1744    -0.1793    -3.0300 H       
  40 H40           -1.2533     3.9321     1.0695 H       
  41 H41           -0.3858     3.9600    -0.4845 H       
  42 H42           -2.1652     3.9220    -0.4591 H       
  43 H43           -4.0596     2.2614    -0.9550 H       
  44 H44           -4.4684     1.4737     0.5879 H       
  45 H45           -3.6062     3.0309     0.5846 H       
  46 H46            3.6728    -1.3768     2.2052 H       
  47 H47            3.0377    -2.4538     0.9380 H       
  48 H48            6.3599    -3.3566    -0.2204 H       
  49 H49            4.6201    -3.6197    -0.4904 H       
  50 H50            5.5358    -2.1515    -2.2469 H       
  51 H51            6.1501    -1.0287    -1.0084 H       
@<TRIPOS>BOND
   1    1    6 ar
   2    1    7 1
   3    1    2 ar
   4    2    3 ar
   5    2   23 1
   6    3    4 ar
   7    3   24 1
   8    4    5 ar
   9    4   11 1
  10    5    6 ar
  11    5   29 1
  12    6   10 1
  13    7    8 1
  14    8    9 1
  15    8   30 1
  16    8   31 1
  17    9   10 am
  18    9   19 1
  19   10   18 2
  20   11   12 1
  21   11   32 1
  22   11   33 1
  23   12   14 ar
  24   12   13 ar
  25   13   17 ar
  26   13   34 1
  27   14   15 ar
  28   14   35 1
  29   15   16 ar
  30   15   36 1
  31   16   22 1
  32   16   17 ar
  33   19   25 1
  34   19   20 1
  35   19   37 1
  36   20   21 1
  37   20   28 1
  38   20   38 1
  39   21   39 1
  40   23   40 1
  41   23   41 1
  42   23   42 1
  43   24   43 1
  44   24   44 1
  45   24   45 1
  46   25   26 1
  47   25   46 1
  48   25   47 1
  49   26   27 1
  50   27   28 1
  51   27   48 1
  52   27   49 1
  53   28   50 1
  54   28   51 1

#	End of record

