#	Name: ASD03090543
#	Creating user name:	WinNT
#	Creation time:	15. 06. 2019 20:29

#	Modifying user name:	WinNT
#	Modification time:	15. 06. 2019 20:29

#	Program:	/corina/corina34_cracker 3.40 0067  02.08.2006

@<TRIPOS>MOLECULE
ASD03090543
  43   46    0    0    0
SMALL
NO_CHARGES


@<TRIPOS>ATOM
   1 C1            -0.0197     1.5018     0.0198 C.2     
   2 C2            -0.0003    -0.0051     0.0182 C.3     
   3 O3             1.0229     2.1217     0.0155 O.2     
   4 N4            -1.1955     2.1606     0.0204 N.am    
   5 C5            -2.1797     4.3015    -0.5307 C.ar    
   6 C6            -1.2160     3.5575     0.1337 C.ar    
   7 C7            -0.2684     4.2159     0.9158 C.ar    
   8 C8            -0.3265     5.5949     0.9995 C.ar    
   9 C9            -1.3217     6.2750     0.3051 C.ar    
  10 N10           -2.2061     5.6163    -0.4284 N.ar    
  11 S11           -1.4070     8.0322     0.4030 S.3     
  12 C12           -2.6961     8.4302    -0.7303 C.ar    
  13 C13           -3.9973     8.6008    -0.2732 C.ar    
  14 C14           -5.0049     8.9131    -1.1642 C.ar    
  15 C15           -4.7205     9.0558    -2.5101 C.ar    
  16 C16           -3.4266     8.8867    -2.9686 C.ar    
  17 C17           -2.4130     8.5799    -2.0825 C.ar    
  18 N18            5.3280    -1.8148     0.2645 N.pl3   
  19 C19            5.4941    -1.8702     1.6215 C.2     
  20 C20            4.3648    -1.4854     2.2369 C.2     
  21 C21            3.3963    -1.1568     1.1881 C.ar    
  22 C22            2.0742    -0.7079     1.1941 C.ar    
  23 C23            1.4268    -0.4891     0.0110 C.ar    
  24 C24            2.0730    -0.7095    -1.1978 C.ar    
  25 C25            3.3769    -1.1527    -1.2268 C.ar    
  26 C26            4.0554    -1.3821    -0.0340 C.ar    
  27 H27           -0.5052    -0.3759     0.9103 H       
  28 H28           -0.5137    -0.3741    -0.8697 H       
  29 H29           -2.0275     1.6681    -0.0575 H       
  30 H30           -2.9144     3.7988    -1.1422 H       
  31 H31            0.4931     3.6618     1.4445 H       
  32 H32            0.3916     6.1371     1.5967 H       
  33 H33           -4.2202     8.4888     0.7776 H       
  34 H34           -6.0164     9.0459    -0.8096 H       
  35 H35           -5.5107     9.2994    -3.2048 H       
  36 H36           -3.2081     8.9989    -4.0203 H       
  37 H37           -1.4021     8.4521    -2.4406 H       
  38 H38            6.0070    -2.0425    -0.3898 H       
  39 H39            6.3996    -2.1781     2.1232 H       
  40 H40            4.2013    -1.4289     3.3029 H       
  41 H41            1.5648    -0.5351     2.1306 H       
  42 H42            1.5481    -0.5320    -2.1248 H       
  43 H43            3.8709    -1.3216    -2.1722 H       
@<TRIPOS>BOND
   1    1    2 1
   2    1    3 2
   3    1    4 am
   4    2   23 1
   5    2   27 1
   6    2   28 1
   7    4    6 1
   8    4   29 1
   9    5    6 ar
  10    5   10 ar
  11    5   30 1
  12    6    7 ar
  13    7    8 ar
  14    7   31 1
  15    8    9 ar
  16    8   32 1
  17    9   10 ar
  18    9   11 1
  19   11   12 1
  20   12   13 ar
  21   12   17 ar
  22   13   14 ar
  23   13   33 1
  24   14   15 ar
  25   14   34 1
  26   15   16 ar
  27   15   35 1
  28   16   17 ar
  29   16   36 1
  30   17   37 1
  31   18   19 1
  32   18   26 1
  33   18   38 1
  34   19   20 2
  35   19   39 1
  36   20   21 1
  37   20   40 1
  38   21   22 ar
  39   21   26 ar
  40   22   23 ar
  41   22   41 1
  42   23   24 ar
  43   24   25 ar
  44   24   42 1
  45   25   26 ar
  46   25   43 1

#	End of record

