#	Name: ASD01028842
#	Creating user name:	WinNT
#	Creation time:	15. 06. 2019 18:58

#	Modifying user name:	WinNT
#	Modification time:	15. 06. 2019 18:58

#	Program:	/corina/corina34_cracker 3.40 0067  02.08.2006

@<TRIPOS>MOLECULE
ASD01028842
  42   46    0    0    0
SMALL
NO_CHARGES


@<TRIPOS>ATOM
   1 C1            -0.0157     1.3060     0.0092 C.ar    
   2 N2             0.0021    -0.0041     0.0020 N.ar    
   3 C3             1.1645     2.0563     0.0020 C.ar    
   4 C4             2.3770     1.4188    -0.0130 C.ar    
   5 C5             2.3867     0.0119    -0.0207 C.ar    
   6 C6             1.1525    -0.6850    -0.0126 C.ar    
   7 C7             3.5911    -0.7100    -0.0356 C.ar    
   8 C8             3.5598    -2.0712    -0.0422 C.ar    
   9 C9             2.3478    -2.7583    -0.0348 C.ar    
  10 C10            1.1619    -2.0906    -0.0203 C.ar    
  11 C11            4.8530    -2.8448    -0.0582 C.3     
  12 C12            5.2974    -3.1098     1.3572 C.2     
  13 N13            6.4189    -3.7804     1.7362 N.pl3   
  14 C14            6.4142    -3.7759     3.1088 C.2     
  15 N15            5.3260    -3.1243     3.4863 N.2     
  16 N16            4.6780    -2.7321     2.4461 N.2     
  17 C17            7.4292    -4.3858     1.0477 C.2     
  18 C18            8.4477    -4.9949     1.7128 C.2     
  19 C19            8.4663    -5.0048     3.1275 C.2     
  20 C20            7.4619    -4.4015     3.8175 C.2     
  21 C21            9.5412    -5.6507     0.9530 C.2     
  22 F22            4.6607    -4.0611    -0.7221 F       
  23 F23            5.8334    -2.1005    -0.7231 F       
  24 N24            9.5836    -5.6772    -0.3710 N.2     
  25 C25           10.5855    -6.2774    -0.9145 C.2     
  26 S26           11.6307    -6.9021     0.2849 S.3     
  27 C27           10.5813    -6.2667     1.5493 C.2     
  28 O28            1.1087     3.4142     0.0094 O.3     
  29 C29           -0.1901     4.0101     0.0245 C.3     
  30 F30            7.4658    -4.4029     5.1684 F       
  31 H31           -0.9658     1.8194     0.0165 H       
  32 H32            3.2995     1.9804    -0.0192 H       
  33 H33            4.5368    -0.1884    -0.0421 H       
  34 H34            2.3494    -3.8383    -0.0407 H       
  35 H35            0.2314    -2.6388    -0.0145 H       
  36 H36            7.4201    -4.3817    -0.0323 H       
  37 H37            9.2739    -5.4890     3.6565 H       
  38 H38           10.7428    -6.3728    -1.9788 H       
  39 H39           10.7408    -6.3584     2.6135 H       
  40 H40           -0.7263     3.6900     0.9180 H       
  41 H41           -0.0918     5.0956     0.0291 H       
  42 H42           -0.7429     3.6991    -0.8619 H       
@<TRIPOS>BOND
   1    1    2 ar
   2    1    3 ar
   3    1   31 1
   4    2    6 ar
   5    3    4 ar
   6    3   28 1
   7    4    5 ar
   8    4   32 1
   9    5    6 ar
  10    5    7 ar
  11    6   10 ar
  12    7    8 ar
  13    7   33 1
  14    8    9 ar
  15    8   11 1
  16    9   10 ar
  17    9   34 1
  18   10   35 1
  19   11   12 1
  20   11   22 1
  21   11   23 1
  22   12   13 1
  23   12   16 2
  24   13   14 1
  25   13   17 1
  26   14   15 2
  27   14   20 1
  28   15   16 1
  29   17   18 2
  30   17   36 1
  31   18   19 1
  32   18   21 1
  33   19   20 2
  34   19   37 1
  35   20   30 1
  36   21   24 1
  37   21   27 2
  38   24   25 2
  39   25   26 1
  40   25   38 1
  41   26   27 1
  42   27   39 1
  43   28   29 1
  44   29   40 1
  45   29   41 1
  46   29   42 1

#	End of record

