#	Name: ASD08070235
#	Creating user name:	WinNT
#	Creation time:	15. 06. 2019 21:14

#	Modifying user name:	WinNT
#	Modification time:	15. 06. 2019 21:14

#	Program:	/corina/corina34_cracker 3.40 0067  02.08.2006

@<TRIPOS>MOLECULE
ASD08070235
  34   35    0    0    0
SMALL
NO_CHARGES


@<TRIPOS>ATOM
   1 C1            -0.0187     1.4719    -0.0022 C.ar    
   2 C2             0.0018    -0.0037    -0.0026 C.2     
   3 O3             1.0632    -0.5970    -0.0137 O.2     
   4 N4            -1.1558    -0.6938     0.0094 N.am    
   5 C5            -1.1402    -2.0895    -0.1040 C.ar    
   6 C6            -2.0786    -2.8524     0.5784 C.ar    
   7 C7            -2.0628    -4.2286     0.4658 C.ar    
   8 C8             1.1805     2.1891    -0.0146 C.ar    
   9 C9             1.1574     3.5672    -0.0141 C.ar    
  10 C10           -0.0573     4.2438    -0.0013 C.ar    
  11 C11           -1.2527     3.5336     0.0115 C.ar    
  12 C12           -0.1899    -2.7109    -0.9034 C.ar    
  13 C13           -0.1754    -4.0872    -1.0151 C.ar    
  14 C14           -1.1099    -4.8490    -0.3289 C.ar    
  15 C15           -1.2375     2.1554     0.0048 C.ar    
  16 O16           -0.0762     5.6013    -0.0009 O.3     
  17 Cl17           2.6466     4.4592    -0.0289 Cl      
  18 Cl18          -2.7661     4.3838     0.0280 Cl      
  19 O19           -1.0950    -6.2041    -0.4393 O.3     
  20 C20           -2.0862    -6.9257     0.2948 C.3     
  21 C21           -0.0985     6.2502    -1.2739 C.3     
  22 H22           -1.9998    -0.2237     0.0965 H       
  23 H23           -2.8203    -2.3696     1.1974 H       
  24 H24           -2.7924    -4.8221     0.9968 H       
  25 H25            2.1243     1.6642    -0.0241 H       
  26 H26            0.5374    -2.1180    -1.4380 H       
  27 H27            0.5633    -4.5706    -1.6371 H       
  28 H28           -2.1663     1.6045     0.0147 H       
  29 H29           -1.9737    -6.7173     1.3588 H       
  30 H30           -3.0784    -6.6160    -0.0332 H       
  31 H31           -1.9624    -7.9943     0.1188 H       
  32 H32            0.7896     5.9698    -1.8402 H       
  33 H33           -0.9901     5.9451    -1.8216 H       
  34 H34           -0.1121     7.3307    -1.1307 H       
@<TRIPOS>BOND
   1    1    2 1
   2    1    8 ar
   3    1   15 ar
   4    2    3 2
   5    2    4 am
   6    4    5 1
   7    4   22 1
   8    5    6 ar
   9    5   12 ar
  10    6    7 ar
  11    6   23 1
  12    7   14 ar
  13    7   24 1
  14    8    9 ar
  15    8   25 1
  16    9   10 ar
  17    9   17 1
  18   10   11 ar
  19   10   16 1
  20   11   15 ar
  21   11   18 1
  22   12   13 ar
  23   12   26 1
  24   13   14 ar
  25   13   27 1
  26   14   19 1
  27   15   28 1
  28   16   21 1
  29   19   20 1
  30   20   29 1
  31   20   30 1
  32   20   31 1
  33   21   32 1
  34   21   33 1
  35   21   34 1

#	End of record

