#	Name: ASD01840096
#	Creating user name:	WinNT
#	Creation time:	15. 06. 2019 19:37

#	Modifying user name:	WinNT
#	Modification time:	15. 06. 2019 19:37

#	Program:	/corina/corina34_cracker 3.40 0067  02.08.2006

@<TRIPOS>MOLECULE
ASD01840096
  59   63    0    0    0
SMALL
NO_CHARGES


@<TRIPOS>ATOM
   1 C1            -0.0569     1.3241    -0.1848 C.ar    
   2 N2             0.3638     0.6145     0.8515 N.ar    
   3 C3             1.5154    -0.0318     0.8158 C.ar    
   4 N4             2.2987    -0.0072    -0.2372 N.ar    
   5 C5             0.7517     1.3844    -1.3491 C.ar    
   6 C6             0.5397     2.0747    -2.6074 C.2     
   7 C7             1.9598     0.6827    -1.3340 C.ar    
   8 S8             2.7877     0.9002    -2.8689 S.3     
   9 C9             1.5047     1.9196    -3.4930 C.2     
  10 C10           -0.6882     2.9042    -2.8816 C.3     
  11 C11            1.5043     2.5390    -4.8669 C.3     
  12 N12           -1.2677     1.9909    -0.1348 N.3     
  13 C13           -2.3814     1.0480     0.0296 C.3     
  14 C14           -3.7091     1.8032    -0.0651 C.3     
  15 C15           -3.7592     2.8764     1.0259 C.3     
  16 C16           -2.5619     3.8167     0.8612 C.3     
  17 C17           -1.2675     3.0032     0.9291 C.3     
  18 C18           -5.0384     3.6631     0.9001 C.2     
  19 O19           -5.7101     3.5719    -0.1058 O.2     
  20 N20           -5.4361     4.4680     1.9053 N.am    
  21 C21           -7.3254     5.6954     2.8651 C.ar    
  22 C22           -6.6527     5.1436     1.7795 C.ar    
  23 C23           -4.5801     4.5920     3.0815 C.3     
  24 C24           -5.4167     4.2833     4.3320 C.3     
  25 S25           -6.6712     5.5874     4.4967 S.3     
  26 C26           -9.0777     6.4535     1.4049 C.ar    
  27 C27           -8.4090     5.9110     0.3231 C.ar    
  28 C28           -7.2055     5.2605     0.5065 C.ar    
  29 C29           -8.5363     6.3502     2.6695 C.ar    
  30 S30          -10.6159     7.2794     1.1675 S.o     
  31 O31          -10.2244     8.5374     0.6353 O.2     
  32 O32          -11.2052     6.5651    -0.0404 O.3     
  33 C33          -12.4832     7.0617    -0.4430 C.3     
  34 H34            1.8228    -0.5990     1.6820 H       
  35 H35           -0.5467     3.9069    -2.4783 H       
  36 H36           -0.8527     2.9651    -3.9573 H       
  37 H37           -1.5532     2.4405    -2.4074 H       
  38 H38            1.9808     3.5183    -4.8241 H       
  39 H39            2.0543     1.8970    -5.5550 H       
  40 H40            0.4774     2.6494    -5.2153 H       
  41 H41           -2.3365     0.2926    -0.7548 H       
  42 H42           -2.3072     0.5647     1.0038 H       
  43 H43           -3.7901     2.2754    -1.0441 H       
  44 H44           -4.5352     1.1055     0.0726 H       
  45 H45           -3.7173     2.4016     2.0062 H       
  46 H46           -2.6249     4.3206    -0.1032 H       
  47 H47           -2.5684     4.5576     1.6607 H       
  48 H48           -1.1985     2.5106     1.8990 H       
  49 H49           -0.4136     3.6678     0.7979 H       
  50 H50           -3.7547     3.8838     3.0095 H       
  51 H51           -4.1896     5.6077     3.1442 H       
  52 H52           -5.9037     3.3145     4.2205 H       
  53 H53           -4.7747     4.2752     5.2129 H       
  54 H54           -8.8311     5.9935    -0.6675 H       
  55 H55           -6.6886     4.8395    -0.3432 H       
  56 H56           -9.0586     6.7777     3.5126 H       
  57 H57          -12.8345     6.5010    -1.3093 H       
  58 H58          -13.1925     6.9463     0.3765 H       
  59 H59          -12.3974     8.1167    -0.7035 H       
@<TRIPOS>BOND
   1    1    2 ar
   2    1    5 ar
   3    1   12 1
   4    2    3 ar
   5    3    4 ar
   6    3   34 1
   7    4    7 ar
   8    5    7 ar
   9    5    6 1
  10    6    9 2
  11    6   10 1
  12    7    8 1
  13    8    9 1
  14    9   11 1
  15   10   35 1
  16   10   36 1
  17   10   37 1
  18   11   38 1
  19   11   39 1
  20   11   40 1
  21   12   13 1
  22   12   17 1
  23   13   14 1
  24   13   41 1
  25   13   42 1
  26   14   15 1
  27   14   43 1
  28   14   44 1
  29   15   16 1
  30   15   18 1
  31   15   45 1
  32   16   17 1
  33   16   46 1
  34   16   47 1
  35   17   48 1
  36   17   49 1
  37   18   19 2
  38   18   20 am
  39   20   23 1
  40   20   22 1
  41   21   25 1
  42   21   29 ar
  43   21   22 ar
  44   22   28 ar
  45   23   24 1
  46   23   50 1
  47   23   51 1
  48   24   25 1
  49   24   52 1
  50   24   53 1
  51   26   27 ar
  52   26   29 ar
  53   26   30 1
  54   27   28 ar
  55   27   54 1
  56   28   55 1
  57   29   56 1
  58   30   31 2
  59   30   32 1
  60   32   33 1
  61   33   57 1
  62   33   58 1
  63   33   59 1

#	End of record

