#	Name: ASD01915448
#	Creating user name:	WinNT
#	Creation time:	15. 06. 2019 20:05

#	Modifying user name:	WinNT
#	Modification time:	15. 06. 2019 20:05

#	Program:	/corina/corina34_cracker 3.40 0067  02.08.2006

@<TRIPOS>MOLECULE
ASD01915448
  45   49    0    0    0
SMALL
NO_CHARGES


@<TRIPOS>ATOM
   1 N1            -0.0480     1.4004     0.3964 N.pl3   
   2 N2            -0.0375     0.0059     0.4900 N.2     
   3 C3             1.1972    -0.4318     0.5349 C.2     
   4 C4             2.0797     0.7377     0.4675 C.ar    
   5 C5             1.2387     1.8668     0.3812 C.ar    
   6 N6             1.7588     3.0856     0.3060 N.ar    
   7 C7             3.4645     0.9064     0.4736 C.ar    
   8 C8             3.9681     2.2044     0.3928 C.ar    
   9 C9             3.0647     3.2861     0.3089 C.ar    
  10 C10            5.3812     2.4367     0.3945 C.1     
  11 N11            6.5021     2.6210     0.3958 N.1     
  12 C12            3.5896     4.6685     0.2228 C.ar    
  13 C13            2.9221     5.6242    -0.5434 C.ar    
  14 C14            3.4148     6.9106    -0.6207 C.ar    
  15 C15            4.5689     7.2549     0.0597 C.ar    
  16 C16            5.2374     6.3110     0.8222 C.ar    
  17 C17            4.7493     5.0207     0.9117 C.ar    
  18 C18            1.6231    -1.8479     0.6360 C.ar    
  19 C19            1.0879    -2.6705     1.6263 C.ar    
  20 C20            1.4882    -3.9892     1.7151 C.ar    
  21 C21            2.4191    -4.4940     0.8229 C.ar    
  22 C22            2.9527    -3.6818    -0.1610 C.ar    
  23 C23            2.5559    -2.3637    -0.2624 C.ar    
  24 Cl24           0.8238    -5.0154     2.9476 Cl      
  25 C25            4.3895    -0.2797     0.5652 C.3     
  26 C26            5.4515    -0.3201    -0.5463 C.3     
  27 C27            6.4452    -0.7914     0.5286 C.3     
  28 C28            5.5483    -0.0821     1.5568 C.3     
  29 F29            6.4851    -2.1812     0.6840 F       
  30 F30            7.7170    -0.2219     0.4044 F       
  31 F31            6.3643     6.6534     1.4840 F       
  32 H32           -0.8441     1.9522     0.3457 H       
  33 H33            2.0211     5.3574    -1.0757 H       
  34 H34            2.8983     7.6505    -1.2141 H       
  35 H35            4.9505     8.2633    -0.0041 H       
  36 H36            5.2678     4.2861     1.5100 H       
  37 H37            0.3620    -2.2772     2.3226 H       
  38 H38            2.7299    -5.5257     0.8960 H       
  39 H39            3.6787    -4.0808    -0.8539 H       
  40 H40            2.9705    -1.7319    -1.0339 H       
  41 H41            3.8577    -1.2222     0.6954 H       
  42 H42            5.2518    -1.0675    -1.3141 H       
  43 H43            5.6881     0.6602    -0.9599 H       
  44 H44            5.8114     0.9633     1.7182 H       
  45 H45            5.4266    -0.6374     2.4868 H       
@<TRIPOS>BOND
   1    1    2 1
   2    1    5 1
   3    1   32 1
   4    2    3 2
   5    3    4 1
   6    3   18 1
   7    4    7 ar
   8    4    5 ar
   9    5    6 ar
  10    6    9 ar
  11    7    8 ar
  12    7   25 1
  13    8    9 ar
  14    8   10 1
  15    9   12 1
  16   10   11 3
  17   12   13 ar
  18   12   17 ar
  19   13   14 ar
  20   13   33 1
  21   14   15 ar
  22   14   34 1
  23   15   16 ar
  24   15   35 1
  25   16   17 ar
  26   16   31 1
  27   17   36 1
  28   18   19 ar
  29   18   23 ar
  30   19   20 ar
  31   19   37 1
  32   20   21 ar
  33   20   24 1
  34   21   22 ar
  35   21   38 1
  36   22   23 ar
  37   22   39 1
  38   23   40 1
  39   25   26 1
  40   25   28 1
  41   25   41 1
  42   26   27 1
  43   26   42 1
  44   26   43 1
  45   27   29 1
  46   27   30 1
  47   27   28 1
  48   28   44 1
  49   28   45 1

#	End of record

