#	Name: ASD01815864
#	Creating user name:	WinNT
#	Creation time:	15. 06. 2019 19:34

#	Modifying user name:	WinNT
#	Modification time:	15. 06. 2019 19:34

#	Program:	/corina/corina34_cracker 3.40 0067  02.08.2006

@<TRIPOS>MOLECULE
ASD01815864
  48   52    0    0    0
SMALL
NO_CHARGES


@<TRIPOS>ATOM
   1 C1            -0.0167     1.3813     0.0096 C.ar    
   2 C2             0.0021    -0.0041     0.0020 C.ar    
   3 C3             1.1984    -0.6909    -0.0131 C.ar    
   4 C4             2.4015     0.0059    -0.0208 C.ar    
   5 C5             2.3790     1.4106    -0.0130 C.ar    
   6 C6             1.1663     2.0916     0.0022 C.ar    
   7 N7             3.6053    -0.6772    -0.0354 N.pl3   
   8 C8             4.7970    -0.0586    -0.0430 C.2     
   9 C9             4.9000     1.3103    -0.0371 C.2     
  10 C10            3.6670     2.1302    -0.0215 C.2     
  11 C11            5.9971     2.2729    -0.0417 C.2     
  12 N12            5.4245     3.4960    -0.0302 N.am    
  13 N13            4.0323     3.3799    -0.0182 N.2     
  14 O14            7.1914     2.0229    -0.0531 O.2     
  15 C15            3.5779    -2.1419    -0.0425 C.3     
  16 C16            3.5553    -2.6370    -1.4657 C.ar    
  17 C17            4.7427    -2.8861    -2.1287 C.ar    
  18 C18            4.7247    -3.3401    -3.4333 C.ar    
  19 C19            3.5137    -3.5459    -4.0782 C.ar    
  20 C20            2.3236    -3.2952    -3.4107 C.ar    
  21 C21            2.3470    -2.8468    -2.1043 C.ar    
  22 C22            6.1259     4.7074    -0.0291 C.ar    
  23 C23            5.4346     5.9120    -0.0168 C.ar    
  24 C24            6.1296     7.1053    -0.0153 C.ar    
  25 C25            7.5125     7.1019    -0.0260 C.ar    
  26 C26            8.2039     5.9043    -0.0382 C.ar    
  27 C27            7.5149     4.7074    -0.0345 C.ar    
  28 O28            3.4933    -3.9920    -5.3617 O.3     
  29 C29            2.2106    -4.1814    -5.9624 C.3     
  30 H30           -0.9602     1.9068     0.0169 H       
  31 H31           -0.9288    -0.5516     0.0083 H       
  32 H32            1.2004    -1.7709    -0.0185 H       
  33 H33            1.1506     3.1715     0.0084 H       
  34 H34            5.6983    -0.6536    -0.0536 H       
  35 H35            4.4657    -2.5244     0.4612 H       
  36 H36            2.6861    -2.4911     0.4779 H       
  37 H37            5.6852    -2.7254    -1.6264 H       
  38 H38            5.6525    -3.5341    -3.9509 H       
  39 H39            1.3796    -3.4548    -3.9106 H       
  40 H40            1.4208    -2.6515    -1.5842 H       
  41 H41            4.3546     5.9154    -0.0088 H       
  42 H42            5.5926     8.0423    -0.0061 H       
  43 H43            8.0537     8.0365    -0.0251 H       
  44 H44            9.2838     5.9050    -0.0466 H       
  45 H45            8.0555     3.7724    -0.0396 H       
  46 H46            1.6708    -3.2345    -5.9728 H       
  47 H47            2.3371    -4.5387    -6.9843 H       
  48 H48            1.6453    -4.9155    -5.3882 H       
@<TRIPOS>BOND
   1    1    2 ar
   2    1    6 ar
   3    1   30 1
   4    2    3 ar
   5    2   31 1
   6    3    4 ar
   7    3   32 1
   8    4    5 ar
   9    4    7 1
  10    5    6 ar
  11    5   10 1
  12    6   33 1
  13    7    8 1
  14    7   15 1
  15    8    9 2
  16    8   34 1
  17    9   10 1
  18    9   11 1
  19   10   13 2
  20   11   12 am
  21   11   14 2
  22   12   13 1
  23   12   22 1
  24   15   16 1
  25   15   35 1
  26   15   36 1
  27   16   17 ar
  28   16   21 ar
  29   17   18 ar
  30   17   37 1
  31   18   19 ar
  32   18   38 1
  33   19   20 ar
  34   19   28 1
  35   20   21 ar
  36   20   39 1
  37   21   40 1
  38   22   23 ar
  39   22   27 ar
  40   23   24 ar
  41   23   41 1
  42   24   25 ar
  43   24   42 1
  44   25   26 ar
  45   25   43 1
  46   26   27 ar
  47   26   44 1
  48   27   45 1
  49   28   29 1
  50   29   46 1
  51   29   47 1
  52   29   48 1

#	End of record

