#	Name: ASD04590452
#	Creating user name:	WinNT
#	Creation time:	15. 06. 2019 20:50

#	Modifying user name:	WinNT
#	Modification time:	15. 06. 2019 20:50

#	Program:	/corina/corina34_cracker 3.40 0067  02.08.2006

@<TRIPOS>MOLECULE
ASD04590452
  68   72    0    0    0
SMALL
NO_CHARGES


@<TRIPOS>ATOM
   1 C1            -0.0169     1.3923     0.0097 C.ar    
   2 C2             0.0021    -0.0041     0.0020 C.ar    
   3 C3            -2.4013    -0.0379     0.0252 C.ar    
   4 C4            -2.4140     1.3672     0.0440 C.ar    
   5 C5            -1.2191     2.0735     0.0306 C.ar    
   6 N6            -3.6929    -0.4513     0.0451 N.2     
   7 C7            -4.4887     0.5899     0.0744 C.2     
   8 N8            -3.7458     1.7406     0.0750 N.pl3   
   9 C9            -5.9648     0.5311     0.1021 C.2     
  10 C10           -6.7501    -0.6449     0.1020 C.2     
  11 C11           -8.0529    -0.2718     0.1324 C.2     
  12 N12           -8.0970     1.0863     0.1512 N.pl3   
  13 N13           -6.7813     1.5660     0.1370 N.2     
  14 N14           -6.2669    -1.9630     0.0747 N.am    
  15 C15           -7.1306    -2.9977     0.0780 C.2     
  16 O16           -8.3282    -2.7897     0.1046 O.2     
  17 C17           -6.6218    -4.3853     0.0493 C.ar    
  18 C18           -1.1778    -0.7174     0.0095 C.ar    
  19 C19           -5.2479    -4.6312     0.0187 C.ar    
  20 O20            1.1915    -0.6643    -0.0133 O.3     
  21 C21            1.1408    -2.0924    -0.0205 C.3     
  22 O22            1.1536     2.0851     0.0022 O.3     
  23 C23            1.0634     3.5113     0.0108 C.3     
  24 C24           -4.7885    -5.9279    -0.0136 C.ar    
  25 C25           -5.6772    -6.9985    -0.0169 C.ar    
  26 C26           -7.0344    -6.7608     0.0250 C.ar    
  27 C27           -7.5089    -5.4593     0.0584 C.ar    
  28 C28           -5.0940    -8.3860    -0.0825 C.3     
  29 C29           -6.1019    -9.4237     0.4085 C.3     
  30 N30           -7.3901    -9.1515    -0.2499 N.am    
  31 C31           -8.0481    -7.8773     0.0574 C.3     
  32 C32           -7.9427   -10.0378    -1.1017 C.2     
  33 O33           -9.1222    -9.7615    -1.6892 O.3     
  34 O34           -7.3764   -11.0863    -1.3394 O.2     
  35 C35           -9.6578   -10.7620    -2.5951 C.3     
  36 C36           -9.8735   -12.0732    -1.8368 C.3     
  37 C37          -10.9931   -10.2747    -3.1612 C.3     
  38 C38           -8.6713   -10.9922    -3.7417 C.3     
  39 H39           -1.2289     3.1534     0.0368 H       
  40 H40           -4.0892     2.6476     0.0940 H       
  41 H41           -8.9046    -0.9359     0.1400 H       
  42 H42           -8.9005     1.6293     0.1738 H       
  43 H43           -5.3114    -2.1290     0.0535 H       
  44 H44           -1.1579    -1.7972     0.0027 H       
  45 H45           -4.5490    -3.8078     0.0200 H       
  46 H46            0.6232    -2.4420     0.8728 H       
  47 H47            0.6056    -2.4325    -0.9070 H       
  48 H48            2.1548    -2.4919    -0.0327 H       
  49 H49            2.0660     3.9388     0.0035 H       
  50 H50            0.5192     3.8462    -0.8723 H       
  51 H51            0.5362     3.8366     0.9076 H       
  52 H52           -3.7254    -6.1169    -0.0371 H       
  53 H53           -8.5730    -5.2764     0.0825 H       
  54 H54           -4.8207    -8.6115    -1.1133 H       
  55 H55           -4.2016    -8.4296     0.5419 H       
  56 H56           -5.7581   -10.4244     0.1465 H       
  57 H57           -6.2163    -9.3438     1.4896 H       
  58 H58           -8.4969    -7.9308     1.0492 H       
  59 H59           -8.8254    -7.6830    -0.6817 H       
  60 H60          -10.5763   -11.9093    -1.0199 H       
  61 H61          -10.2756   -12.8243    -2.5168 H       
  62 H62           -8.9222   -12.4204    -1.4335 H       
  63 H63          -10.8395    -9.3405    -3.7014 H       
  64 H64          -11.3952   -11.0257    -3.8412 H       
  65 H65          -11.6959   -10.1107    -2.3443 H       
  66 H66           -7.7200   -11.3393    -3.3384 H       
  67 H67           -9.0734   -11.7432    -4.4217 H       
  68 H68           -8.5177   -10.0580    -4.2819 H       
@<TRIPOS>BOND
   1    1    2 ar
   2    1   22 1
   3    1    5 ar
   4    2   18 ar
   5    2   20 1
   6    3    4 ar
   7    3    6 1
   8    3   18 ar
   9    4    5 ar
  10    4    8 1
  11    5   39 1
  12    6    7 2
  13    7    8 1
  14    7    9 1
  15    8   40 1
  16    9   10 1
  17    9   13 2
  18   10   11 2
  19   10   14 1
  20   11   12 1
  21   11   41 1
  22   12   13 1
  23   12   42 1
  24   14   15 am
  25   14   43 1
  26   15   16 2
  27   15   17 1
  28   17   19 ar
  29   17   27 ar
  30   18   44 1
  31   19   24 ar
  32   19   45 1
  33   20   21 1
  34   21   46 1
  35   21   47 1
  36   21   48 1
  37   22   23 1
  38   23   49 1
  39   23   50 1
  40   23   51 1
  41   24   25 ar
  42   24   52 1
  43   25   26 ar
  44   25   28 1
  45   26   27 ar
  46   26   31 1
  47   27   53 1
  48   28   29 1
  49   28   54 1
  50   28   55 1
  51   29   30 1
  52   29   56 1
  53   29   57 1
  54   30   31 1
  55   30   32 am
  56   31   58 1
  57   31   59 1
  58   32   33 1
  59   32   34 2
  60   33   35 1
  61   35   36 1
  62   35   37 1
  63   35   38 1
  64   36   60 1
  65   36   61 1
  66   36   62 1
  67   37   63 1
  68   37   64 1
  69   37   65 1
  70   38   66 1
  71   38   67 1
  72   38   68 1

#	End of record

