#	Name: ASD09740186
#	Creating user name:	WinNT
#	Creation time:	15. 06. 2019 21:22

#	Modifying user name:	WinNT
#	Modification time:	15. 06. 2019 21:22

#	Program:	/corina/corina34_cracker 3.40 0067  02.08.2006

@<TRIPOS>MOLECULE
ASD09740186
  37   40    0    0    0
SMALL
NO_CHARGES


@<TRIPOS>ATOM
   1 O1            -0.0144     1.2085     0.0087 O.3     
   2 N2             0.0021    -0.0041     0.0020 N.2     
   3 C3             1.2425     1.6826    -0.0008 C.2     
   4 N4             2.0470     0.6331    -0.0141 N.2     
   5 C5             1.2347    -0.4434    -0.0121 C.2     
   6 C6             1.6606    -1.8655    -0.0238 C.ar    
   7 C7             1.6463     3.0971     0.0025 C.2     
   8 C8             3.0157    -2.1888    -0.0385 C.ar    
   9 C9             0.7068    -2.8801    -0.0143 C.ar    
  10 C10            1.1104    -4.2051    -0.0249 C.ar    
  11 C11            2.4626    -4.5188    -0.0443 C.ar    
  12 C12            3.4095    -3.5121    -0.0489 C.ar    
  13 C13            2.8992    -5.9611    -0.0547 C.3     
  14 O14            0.1825    -5.1981    -0.0156 O.3     
  15 C15           -1.1905    -4.8028     0.0049 C.3     
  16 C16            0.7978     4.1295     0.0162 C.2     
  17 C17            1.3923     5.4028     0.0177 C.ar    
  18 C18            2.7910     5.3426     0.0043 C.ar    
  19 S19            3.3082     3.6604    -0.0033 S.3     
  20 C20            0.7691     6.6733     0.0306 C.ar    
  21 C21            1.5171     7.8087     0.0299 C.ar    
  22 C22            2.9048     7.7434     0.0162 C.ar    
  23 C23            3.5389     6.5240     0.0040 C.ar    
  24 H24            3.7580    -1.4043    -0.0421 H       
  25 H25           -0.3447    -2.6345     0.0015 H       
  26 H26            4.4602    -3.7612    -0.0644 H       
  27 H27            2.9904    -6.3057    -1.0848 H       
  28 H28            3.8632    -6.0525     0.4457 H       
  29 H29            2.1598    -6.5684     0.4674 H       
  30 H30           -1.3852    -4.2118     0.8999 H       
  31 H31           -1.4099    -4.2052    -0.8799 H       
  32 H32           -1.8240    -5.6898     0.0104 H       
  33 H33           -0.2736     3.9942     0.0251 H       
  34 H34           -0.3087     6.7416     0.0406 H       
  35 H35            1.0275     8.7713     0.0399 H       
  36 H36            3.4868     8.6531     0.0155 H       
  37 H37            4.6179     6.4782    -0.0071 H       
@<TRIPOS>BOND
   1    1    2 1
   2    1    3 1
   3    2    5 2
   4    3    4 2
   5    3    7 1
   6    4    5 1
   7    5    6 1
   8    6    8 ar
   9    6    9 ar
  10    7   16 2
  11    7   19 1
  12    8   12 ar
  13    8   24 1
  14    9   10 ar
  15    9   25 1
  16   10   11 ar
  17   10   14 1
  18   11   12 ar
  19   11   13 1
  20   12   26 1
  21   13   27 1
  22   13   28 1
  23   13   29 1
  24   14   15 1
  25   15   30 1
  26   15   31 1
  27   15   32 1
  28   16   17 1
  29   16   33 1
  30   17   18 ar
  31   17   20 ar
  32   18   19 1
  33   18   23 ar
  34   20   21 ar
  35   20   34 1
  36   21   22 ar
  37   21   35 1
  38   22   23 ar
  39   22   36 1
  40   23   37 1

#	End of record

