#	Name: ASD06610043
#	Creating user name:	WinNT
#	Creation time:	15. 06. 2019 21:07

#	Modifying user name:	WinNT
#	Modification time:	15. 06. 2019 21:07

#	Program:	/corina/corina34_cracker 3.40 0067  02.08.2006

@<TRIPOS>MOLECULE
ASD06610043
 286  286    0    0    0
SMALL
NO_CHARGES


@<TRIPOS>ATOM
   1 C1            -2.2146     7.8064     0.5382 C.2     
   2 O2            -1.9966     6.6183     0.6473 O.2     
   3 N3             0.1869     8.0783     0.7576 N.am    
   4 C4            -1.0664     8.7800     0.4692 C.3     
   5 C5            -0.9984     9.3899    -0.9323 C.3     
   6 C6             0.0735    10.4813    -0.9622 C.3     
   7 C7            -0.6450     8.3000    -1.9463 C.3     
   8 C8            -5.7834     7.9523    -0.2400 C.2     
   9 O9            -5.7080     9.0974    -0.6323 O.2     
  10 N10           -3.4837     8.2554     0.4732 N.am    
  11 C11           -4.5959     7.3033     0.4233 C.3     
  12 C12           -4.9724     6.8838     1.8456 C.3     
  13 O13           -5.4753     8.0155     2.5587 O.3     
  14 C14           -9.3490     7.2193    -0.5748 C.2     
  15 O15           -9.2923     6.3037     0.2186 O.2     
  16 N16           -6.9291     7.2601    -0.3972 N.am    
  17 C17           -8.0834     7.8910    -1.0419 C.3     
  18 C18           -7.9607     7.7481    -2.5603 C.3     
  19 O19           -8.0372     6.3663    -2.9164 O.3     
  20 C20          -12.8499     7.1592    -1.6251 C.2     
  21 O21          -12.6123     7.7701    -2.6455 O.2     
  22 N22          -10.5438     7.6360    -1.0387 N.am    
  23 C23          -11.7741     6.9830    -0.5846 C.3     
  24 C24          -12.2302     7.6140     0.7325 C.3     
  25 C25          -11.1942     7.3272     1.8211 C.3     
  26 C26          -11.6503     7.9582     3.1382 C.3     
  27 N27          -10.6582     7.6835     4.1806 N.pl3   
  28 C28          -10.8542     8.1544     5.4573 C.2     
  29 N29          -11.9227     8.8452     5.7403 N.2     
  30 N30           -9.9233     7.8966     6.4356 N.pl3   
  31 C31          -16.4753     6.7162    -1.7772 C.2     
  32 O32          -16.5582     6.5256    -0.5824 O.2     
  33 N33          -14.0760     6.6380    -1.4217 N.am    
  34 C34          -15.1218     6.8093    -2.4333 C.3     
  35 C35          -14.9918     5.7125    -3.4921 C.3     
  36 C36          -13.6700     5.8832    -4.2435 C.3     
  37 C37          -13.5419     4.8030    -5.2865 C.2     
  38 O38          -14.4180     3.9809    -5.4155 O.2     
  39 O39          -12.4546     4.7540    -6.0721 O.3     
  40 C40          -19.9320     6.3184    -2.8980 C.2     
  41 O41          -19.5948     6.1043    -4.0432 O.2     
  42 N42          -17.5937     6.8449    -2.5183 N.am    
  43 C43          -18.9094     6.7544    -1.8805 C.3     
  44 C44          -19.2996     8.1234    -1.3198 C.3     
  45 C45          -18.3324     8.5101    -0.1991 C.3     
  46 C46          -18.7225     9.8791     0.3616 C.3     
  47 C47          -17.7553    10.2657     1.4822 C.3     
  48 N48          -18.1299    11.5802     2.0206 N.3     
  49 C49          -23.5805     6.2188    -3.1007 C.2     
  50 O50          -23.7105     6.8502    -2.0734 O.2     
  51 N51          -21.2211     6.1663    -2.5355 N.am    
  52 C52          -22.2151     5.7424    -3.5246 C.3     
  53 C53          -22.2160     4.2157    -3.6248 C.3     
  54 C54          -20.8697     3.7399    -4.1744 C.3     
  55 C55          -20.8706     2.2132    -4.2745 C.3     
  56 N56          -19.5815     1.7576    -4.8007 N.pl3   
  57 C57          -19.3478     0.4146    -4.9791 C.2     
  58 N58          -18.2009     0.0092    -5.4473 N.2     
  59 N59          -20.3238    -0.5009    -4.6637 N.pl3   
  60 C60          -27.0380     5.5148    -4.0563 C.2     
  61 O61          -26.7121     4.5842    -4.7625 O.2     
  62 N62          -24.6572     5.9432    -3.8631 N.am    
  63 C63          -25.9846     6.4063    -3.4509 C.3     
  64 C64          -26.1952     7.8435    -3.9314 C.3     
  65 C65          -25.2051     8.7689    -3.2213 C.3     
  66 C66          -25.4157    10.2062    -3.7017 C.3     
  67 N67          -24.4677    11.0923    -3.0218 N.pl3   
  68 C68          -24.4691    12.4397    -3.2947 C.2     
  69 N69          -25.3140    12.9289    -4.1584 N.2     
  70 N70          -23.5794    13.2713    -2.6566 N.pl3   
  71 C71          -30.6619     5.6459    -4.5182 C.2     
  72 O72          -30.7237     6.7987    -4.1464 O.2     
  73 N73          -28.3423     5.7516    -3.8129 N.am    
  74 C74          -29.3664     4.8849    -4.4014 C.3     
  75 C75          -29.5730     3.6602    -3.5079 C.3     
  76 O76          -30.1063     4.0741    -2.2483 O.3     
  77 C77          -34.1649     4.8155    -5.1528 C.2     
  78 O78          -33.9556     3.6238    -5.0688 O.2     
  79 N79          -31.7519     5.0454    -5.0357 N.am    
  80 C80          -33.0113     5.7852    -5.1492 C.3     
  81 C81          -33.0157     6.5878    -6.4517 C.3     
  82 C82          -36.8868     3.7958    -6.5076 C.2     
  83 O83          -36.2462     4.1501    -7.4744 O.2     
  84 N84          -35.4291     5.2726    -5.2493 N.am    
  85 C85          -36.5549     4.3412    -5.1425 C.3     
  86 C86          -37.7722     5.0753    -4.5768 C.3     
  87 C87          -37.4949     5.4851    -3.1533 C.2     
  88 O88          -36.4044     5.2915    -2.6704 O.2     
  89 O89          -38.4594     6.0651    -2.4218 O.3     
  90 C90          -39.6619     1.9522    -8.0119 C.2     
  91 O91          -40.3531     2.0752    -7.0229 O.2     
  92 N92          -37.8957     2.9142    -6.6539 N.am    
  93 C93          -38.2185     2.3839    -7.9809 C.3     
  94 C94          -37.3202     1.1826    -8.2824 C.3     
  95 C95          -37.5504     0.0967    -7.2295 C.3     
  96 C96          -36.7466    -1.1513    -7.5998 C.3     
  97 C97          -35.8547     1.6210    -8.2509 C.3     
  98 C98          -41.7735    -0.0480   -10.2263 C.2     
  99 O99          -40.8267    -0.4149   -10.8895 O.2     
 100 N100         -40.1849     1.4292    -9.1387 N.am    
 101 C101         -41.5881     1.0095    -9.1688 C.3     
 102 C102         -42.4741     2.2144    -9.4916 C.3     
 103 C103         -42.3825     3.2194    -8.3724 C.ar    
 104 C104         -41.4192     4.2102    -8.4102 C.ar    
 105 C105         -41.3352     5.1320    -7.3836 C.ar    
 106 C106         -42.2148     5.0635    -6.3194 C.ar    
 107 C107         -43.1786     4.0733    -6.2820 C.ar    
 108 C108         -43.2654     3.1540    -7.3108 C.ar    
 109 C109         -43.3933    -0.9544   -12.7998 C.2     
 110 O110         -43.4000     0.2509   -12.8850 O.2     
 111 N111         -42.9915    -0.5860   -10.4351 N.am    
 112 C112         -43.1717    -1.6141   -11.4631 C.3     
 113 C113         -44.3851    -2.4779   -11.1133 C.3     
 114 C114         -44.5000    -3.6265   -12.1175 C.3     
 115 C115         -45.6366    -4.5602   -11.6966 C.3     
 116 C116         -45.6528    -1.6231   -11.1691 C.3     
 117 O117         -43.5832    -1.7057   -13.8958 O.3     
 118 C118           1.2432     8.7585     1.2454 C.2     
 119 O119           1.1563     9.9515     1.4455 O.2     
 120 C120          18.8997     9.8737     7.4254 C.3     
 121 C121          17.5909    10.6065     7.1242 C.3     
 122 C122          16.5615     9.6112     6.5850 C.3     
 123 C123          15.2527    10.3441     6.2837 C.3     
 124 C124          14.2234     9.3488     5.7445 C.3     
 125 C125          12.9145    10.0816     5.4432 C.3     
 126 C126          11.8852     9.0864     4.9040 C.3     
 127 C127          10.5763     9.8192     4.6028 C.3     
 128 C128           9.5470     8.8239     4.0635 C.3     
 129 C129           8.2381     9.5568     3.7623 C.3     
 130 C130           7.2088     8.5615     3.2231 C.3     
 131 C131           5.8999     9.2944     2.9218 C.3     
 132 C132           4.8706     8.2991     2.3826 C.3     
 133 C133           3.5617     9.0319     2.0813 C.3     
 134 C134           2.5324     8.0366     1.5421 C.3     
 135 H135           0.2564     7.1241     0.5976 H       
 136 H136          -1.2167     9.5717     1.2031 H       
 137 H137          -1.9655     9.8235    -1.1871 H       
 138 H138           1.0550    10.0307    -0.8146 H       
 139 H139           0.0481    10.9892    -1.9262 H       
 140 H140          -0.1189    11.2014    -0.1669 H       
 141 H141          -1.4086     7.5226    -1.9250 H       
 142 H142          -0.5966     8.7346    -2.9447 H       
 143 H143           0.3221     7.8665    -1.6914 H       
 144 H144          -3.6606     9.2091     0.4595 H       
 145 H145          -4.2964     6.4243    -0.1475 H       
 146 H146          -5.7389     6.1098     1.8053 H       
 147 H147          -4.0906     6.4957     2.3554 H       
 148 H148          -5.7344     7.8227     3.4702 H       
 149 H149          -6.9894     6.3443    -0.0834 H       
 150 H150          -8.1144     8.9481    -0.7778 H       
 151 H151          -8.7717     8.2932    -3.0433 H       
 152 H152          -7.0039     8.1552    -2.8874 H       
 153 H153          -7.9664     6.2005    -3.8664 H       
 154 H154         -10.5892     8.3682    -1.6732 H       
 155 H155         -11.5865     5.9201    -0.4324 H       
 156 H156         -12.3324     8.6914     0.6030 H       
 157 H157         -13.1911     7.1905     1.0247 H       
 158 H158         -11.0920     6.2497     1.9507 H       
 159 H159         -10.2333     7.7507     1.5289 H       
 160 H160         -11.7524     9.0356     3.0087 H       
 161 H161         -12.6111     7.5346     3.4305 H       
 162 H162          -9.8631     7.1694     3.9701 H       
 163 H163         -12.0610     9.1774     6.6411 H       
 164 H164          -9.1281     7.3826     6.2250 H       
 165 H165         -10.0616     8.2289     7.3364 H       
 166 H166         -14.2660     6.1493    -0.6056 H       
 167 H167         -15.0136     7.7854    -2.9061 H       
 168 H168         -15.0111     4.7361    -3.0081 H       
 169 H169         -15.8215     5.7860    -4.1951 H       
 170 H170         -13.6507     6.8597    -4.7276 H       
 171 H171         -12.8403     5.8097    -3.5405 H       
 172 H172         -12.4174     4.0430    -6.7264 H       
 173 H173         -17.5274     6.9974    -3.4739 H       
 174 H174         -18.8709     6.0272    -1.0695 H       
 175 H175         -19.2519     8.8684    -2.1140 H       
 176 H176         -20.3144     8.0783    -0.9244 H       
 177 H177         -18.3801     7.7651     0.5951 H       
 178 H178         -17.3176     8.5552    -0.5945 H       
 179 H179         -18.6748    10.6241    -0.4327 H       
 180 H180         -19.7373     9.8340     0.7570 H       
 181 H181         -17.8030     9.5208     2.2765 H       
 182 H182         -16.7405    10.3108     1.0869 H       
 183 H183         -19.0887    11.5823     2.3348 H       
 184 H184         -17.5055    11.8582     2.7629 H       
 185 H185         -21.4908     6.3376    -1.6196 H       
 186 H186         -21.9665     6.1701    -4.4959 H       
 187 H187         -22.3768     3.7868    -2.6357 H       
 188 H188         -23.0150     3.8960    -4.2938 H       
 189 H189         -20.7089     4.1688    -5.1634 H       
 190 H190         -20.0708     4.0596    -3.5054 H       
 191 H191         -21.0314     1.7843    -3.2855 H       
 192 H192         -21.6696     1.8934    -4.9435 H       
 193 H193         -18.8929     2.4035    -5.0233 H       
 194 H194         -18.0359    -0.9383    -5.5731 H       
 195 H195         -21.1773    -0.1992    -4.3153 H       
 196 H196         -20.1589    -1.4484    -4.7896 H       
 197 H197         -24.5533     5.4382    -4.6847 H       
 198 H198         -26.0602     6.3718    -2.3641 H       
 199 H199         -26.0321     7.8943    -5.0079 H       
 200 H200         -27.2138     8.1574    -3.7030 H       
 201 H201         -25.3682     8.7181    -2.1447 H       
 202 H202         -24.1866     8.4551    -3.4496 H       
 203 H203         -25.2526    10.2570    -4.7783 H       
 204 H204         -26.4343    10.5200    -3.4734 H       
 205 H205         -23.8390    10.7283    -2.3791 H       
 206 H206         -25.3150    13.8796    -4.3510 H       
 207 H207         -22.9507    12.9073    -2.0139 H       
 208 H208         -23.5805    14.2220    -2.8492 H       
 209 H209         -28.6029     6.4959    -3.2481 H       
 210 H210         -29.0441     4.5622    -5.3914 H       
 211 H211         -30.2689     2.9728    -3.9888 H       
 212 H212         -28.6176     3.1595    -3.3511 H       
 213 H213         -30.2630     3.3475    -1.6298 H       
 214 H214         -31.7025     4.1234    -5.3330 H       
 215 H215         -33.1108     6.4651    -4.3031 H       
 216 H216         -32.9162     5.9079    -7.2979 H       
 217 H217         -33.9527     7.1382    -6.5362 H       
 218 H218         -32.1813     7.2892    -6.4491 H       
 219 H219         -35.5936     6.2182    -5.3895 H       
 220 H220         -36.2851     3.5198    -4.4788 H       
 221 H221         -37.9732     5.9623    -5.1776 H       
 222 H222         -38.6390     4.4150    -4.6025 H       
 223 H223         -38.2343     6.3104    -1.5139 H       
 224 H224         -38.4082     2.6308    -5.8806 H       
 225 H225         -38.0544     3.1576    -8.7310 H       
 226 H226         -37.5603     0.7881    -9.2697 H       
 227 H227         -37.2267     0.4614    -6.2546 H       
 228 H228         -38.6108    -0.1525    -7.1904 H       
 229 H229         -37.0703    -1.5160    -8.5746 H       
 230 H230         -35.6862    -0.9021    -7.6389 H       
 231 H231         -36.9106    -1.9250    -6.8497 H       
 232 H232         -35.2148     0.7652    -8.4657 H       
 233 H233         -35.6907     2.3946    -9.0011 H       
 234 H234         -35.6146     2.0155    -7.2636 H       
 235 H235         -39.6321     1.3308    -9.9296 H       
 236 H236         -41.8669     0.6037    -8.1963 H       
 237 H237         -42.1378     2.6740   -10.4210 H       
 238 H238         -43.5077     1.8863    -9.6016 H       
 239 H239         -40.7320     4.2637    -9.2416 H       
 240 H240         -40.5821     5.9056    -7.4127 H       
 241 H241         -42.1487     5.7833    -5.5169 H       
 242 H242         -43.8656     4.0195    -5.4504 H       
 243 H243         -44.0209     2.3827    -7.2834 H       
 244 H244         -43.7487    -0.2926    -9.9046 H       
 245 H245         -42.2811    -2.2407   -11.5104 H       
 246 H246         -44.2647    -2.8840   -10.1090 H       
 247 H247         -44.7090    -3.2233   -13.1084 H       
 248 H248         -43.5629    -4.1828   -12.1419 H       
 249 H249         -46.5736    -4.0039   -11.6722 H       
 250 H250         -45.7184    -5.3785   -12.4120 H       
 251 H251         -45.4275    -4.9634   -10.7057 H       
 252 H252         -45.7733    -1.2170   -12.1734 H       
 253 H253         -46.5173    -2.2385   -10.9199 H       
 254 H254         -45.5710    -0.8048   -10.4537 H       
 255 H255         -43.7212    -1.2375   -14.7305 H       
 256 H256          18.7190     9.0985     8.1702 H       
 257 H257          19.2796     9.4176     6.5112 H       
 258 H258          19.6331    10.5827     7.8096 H       
 259 H259          17.2111    11.0625     8.0385 H       
 260 H260          17.7716    11.3816     6.3795 H       
 261 H261          16.9414     9.1552     5.6707 H       
 262 H262          16.3808     8.8361     7.3297 H       
 263 H263          14.8729    10.8001     7.1980 H       
 264 H264          15.4334    11.1192     5.5390 H       
 265 H265          14.6032     8.8928     4.8302 H       
 266 H266          14.0427     8.5737     6.4892 H       
 267 H267          12.5347    10.5377     6.3575 H       
 268 H268          13.0952    10.8568     4.6985 H       
 269 H269          12.2650     8.6304     3.9897 H       
 270 H270          11.7045     8.3112     5.6487 H       
 271 H271          10.1965    10.2752     5.5170 H       
 272 H272          10.7570    10.5944     3.8581 H       
 273 H273           9.9268     8.3679     3.1493 H       
 274 H274           9.3663     8.0488     4.8083 H       
 275 H275           7.8583    10.0128     4.6766 H       
 276 H276           8.4188    10.3319     3.0176 H       
 277 H277           7.5886     8.1055     2.3088 H       
 278 H278           7.0281     7.7864     3.9678 H       
 279 H279           5.5201     9.7504     3.8361 H       
 280 H280           6.0806    10.0695     2.1771 H       
 281 H281           5.2504     7.8431     1.4683 H       
 282 H282           4.6899     7.5239     3.1273 H       
 283 H283           3.1819     9.4879     2.9956 H       
 284 H284           3.7424     9.8071     1.3366 H       
 285 H285           2.3517     7.2615     2.2868 H       
 286 H286           2.9122     7.5806     0.6278 H       
@<TRIPOS>BOND
   1    1    2 2
   2    1    4 1
   3    1   10 am
   4    3  118 am
   5    3    4 1
   6    3  135 1
   7    4    5 1
   8    4  136 1
   9    5    6 1
  10    5    7 1
  11    5  137 1
  12    6  138 1
  13    6  139 1
  14    6  140 1
  15    7  141 1
  16    7  142 1
  17    7  143 1
  18    8    9 2
  19    8   11 1
  20    8   16 am
  21   10   11 1
  22   10  144 1
  23   11   12 1
  24   11  145 1
  25   12   13 1
  26   12  146 1
  27   12  147 1
  28   13  148 1
  29   14   15 2
  30   14   17 1
  31   14   22 am
  32   16   17 1
  33   16  149 1
  34   17   18 1
  35   17  150 1
  36   18   19 1
  37   18  151 1
  38   18  152 1
  39   19  153 1
  40   20   21 2
  41   20   23 1
  42   20   33 am
  43   22   23 1
  44   22  154 1
  45   23   24 1
  46   23  155 1
  47   24   25 1
  48   24  156 1
  49   24  157 1
  50   25   26 1
  51   25  158 1
  52   25  159 1
  53   26   27 1
  54   26  160 1
  55   26  161 1
  56   27   28 1
  57   27  162 1
  58   28   29 2
  59   28   30 1
  60   29  163 1
  61   30  164 1
  62   30  165 1
  63   31   32 2
  64   31   34 1
  65   31   42 am
  66   33   34 1
  67   33  166 1
  68   34   35 1
  69   34  167 1
  70   35   36 1
  71   35  168 1
  72   35  169 1
  73   36   37 1
  74   36  170 1
  75   36  171 1
  76   37   38 2
  77   37   39 1
  78   39  172 1
  79   40   41 2
  80   40   43 1
  81   40   51 am
  82   42   43 1
  83   42  173 1
  84   43   44 1
  85   43  174 1
  86   44   45 1
  87   44  175 1
  88   44  176 1
  89   45   46 1
  90   45  177 1
  91   45  178 1
  92   46   47 1
  93   46  179 1
  94   46  180 1
  95   47   48 1
  96   47  181 1
  97   47  182 1
  98   48  183 1
  99   48  184 1
 100   49   50 2
 101   49   52 1
 102   49   62 am
 103   51   52 1
 104   51  185 1
 105   52   53 1
 106   52  186 1
 107   53   54 1
 108   53  187 1
 109   53  188 1
 110   54   55 1
 111   54  189 1
 112   54  190 1
 113   55   56 1
 114   55  191 1
 115   55  192 1
 116   56   57 1
 117   56  193 1
 118   57   58 2
 119   57   59 1
 120   58  194 1
 121   59  195 1
 122   59  196 1
 123   60   61 2
 124   60   63 1
 125   60   73 am
 126   62   63 1
 127   62  197 1
 128   63   64 1
 129   63  198 1
 130   64   65 1
 131   64  199 1
 132   64  200 1
 133   65   66 1
 134   65  201 1
 135   65  202 1
 136   66   67 1
 137   66  203 1
 138   66  204 1
 139   67   68 1
 140   67  205 1
 141   68   69 2
 142   68   70 1
 143   69  206 1
 144   70  207 1
 145   70  208 1
 146   71   72 2
 147   71   74 1
 148   71   79 am
 149   73   74 1
 150   73  209 1
 151   74   75 1
 152   74  210 1
 153   75   76 1
 154   75  211 1
 155   75  212 1
 156   76  213 1
 157   77   78 2
 158   77   80 1
 159   77   84 am
 160   79   80 1
 161   79  214 1
 162   80   81 1
 163   80  215 1
 164   81  216 1
 165   81  217 1
 166   81  218 1
 167   82   83 2
 168   82   85 1
 169   82   92 am
 170   84   85 1
 171   84  219 1
 172   85   86 1
 173   85  220 1
 174   86   87 1
 175   86  221 1
 176   86  222 1
 177   87   88 2
 178   87   89 1
 179   89  223 1
 180   90   91 2
 181   90   93 1
 182   90  100 am
 183   92   93 1
 184   92  224 1
 185   93   94 1
 186   93  225 1
 187   94   95 1
 188   94   97 1
 189   94  226 1
 190   95   96 1
 191   95  227 1
 192   95  228 1
 193   96  229 1
 194   96  230 1
 195   96  231 1
 196   97  232 1
 197   97  233 1
 198   97  234 1
 199   98   99 2
 200   98  101 1
 201   98  111 am
 202  100  101 1
 203  100  235 1
 204  101  102 1
 205  101  236 1
 206  102  103 1
 207  102  237 1
 208  102  238 1
 209  103  104 ar
 210  103  108 ar
 211  104  105 ar
 212  104  239 1
 213  105  106 ar
 214  105  240 1
 215  106  107 ar
 216  106  241 1
 217  107  108 ar
 218  107  242 1
 219  108  243 1
 220  109  110 2
 221  109  112 1
 222  109  117 1
 223  111  112 1
 224  111  244 1
 225  112  113 1
 226  112  245 1
 227  113  114 1
 228  113  116 1
 229  113  246 1
 230  114  115 1
 231  114  247 1
 232  114  248 1
 233  115  249 1
 234  115  250 1
 235  115  251 1
 236  116  252 1
 237  116  253 1
 238  116  254 1
 239  117  255 1
 240  118  119 2
 241  118  134 1
 242  120  121 1
 243  120  256 1
 244  120  257 1
 245  120  258 1
 246  121  122 1
 247  121  259 1
 248  121  260 1
 249  122  123 1
 250  122  261 1
 251  122  262 1
 252  123  124 1
 253  123  263 1
 254  123  264 1
 255  124  125 1
 256  124  265 1
 257  124  266 1
 258  125  126 1
 259  125  267 1
 260  125  268 1
 261  126  127 1
 262  126  269 1
 263  126  270 1
 264  127  128 1
 265  127  271 1
 266  127  272 1
 267  128  129 1
 268  128  273 1
 269  128  274 1
 270  129  130 1
 271  129  275 1
 272  129  276 1
 273  130  131 1
 274  130  277 1
 275  130  278 1
 276  131  132 1
 277  131  279 1
 278  131  280 1
 279  132  133 1
 280  132  281 1
 281  132  282 1
 282  133  134 1
 283  133  283 1
 284  133  284 1
 285  134  285 1
 286  134  286 1

#	End of record

