#	Name: ASD01884332
#	Creating user name:	WinNT
#	Creation time:	15. 06. 2019 19:48

#	Modifying user name:	WinNT
#	Modification time:	15. 06. 2019 19:48

#	Program:	/corina/corina34_cracker 3.40 0067  02.08.2006

@<TRIPOS>MOLECULE
ASD01884332
  63   65    0    0    0
SMALL
NO_CHARGES


@<TRIPOS>ATOM
   1 C1             1.2728     1.6619     0.5404 C.2     
   2 C2             1.3391     0.6231    -0.4035 C.2     
   3 C3             1.5551     0.9501    -1.7550 C.2     
   4 C4             1.6941     2.2424    -2.1231 C.2     
   5 N5             1.6303     3.2478    -1.2117 N.am    
   6 C6             1.4200     2.9964     0.0937 C.2     
   7 O7             1.3669     3.9167     0.8919 O.2     
   8 C8             1.7871     4.6338    -1.6596 C.3     
   9 C9             0.4169     5.2113    -2.0202 C.3     
  10 C10            1.0547     1.3759     1.9265 C.1     
  11 N11            0.8817     1.1490     3.0261 N.1     
  12 N12            1.1960    -0.6894    -0.0135 N.pl3   
  13 N13           -0.0465    -1.2545     0.0399 N.3     
  14 C14           -0.0130    -2.5329     0.7638 C.3     
  15 C15           -1.4333    -3.0931     0.8704 C.3     
  16 N16           -1.9901    -3.2693    -0.4782 N.3     
  17 C17           -2.0235    -1.9909    -1.2022 C.3     
  18 C18           -0.6032    -1.4307    -1.3087 C.3     
  19 C19            0.5807     6.6588    -2.4880 C.3     
  20 C20           -0.7697     7.1961    -2.9662 C.3     
  21 C21            1.0883     7.5158    -1.3266 C.3     
  22 C22           -3.3262    -3.8770    -0.4208 C.3     
  23 C23           -3.9640    -3.8178    -1.7849 C.ar    
  24 C24           -3.7830    -4.8569    -2.6781 C.ar    
  25 C25           -4.3680    -4.8026    -3.9296 C.ar    
  26 C26           -5.1339    -3.7092    -4.2876 C.ar    
  27 C27           -5.3153    -2.6699    -3.3940 C.ar    
  28 C28           -4.7348    -2.7266    -2.1409 C.ar    
  29 C29            2.3763    -1.4801     0.3444 C.3     
  30 C30           -4.1703    -5.9354    -4.9036 C.3     
  31 F31           -5.1841    -6.8834    -4.7284 F       
  32 F32           -4.2163    -5.4396    -6.2110 F       
  33 F33           -2.9269    -6.5348    -4.6756 F       
  34 H34            1.6099     0.1681    -2.4978 H       
  35 H35            1.8598     2.4812    -3.1633 H       
  36 H36            2.2320     5.2260    -0.8599 H       
  37 H37            2.4350     4.6614    -2.5357 H       
  38 H38           -0.0279     4.6192    -2.8199 H       
  39 H39           -0.2310     5.1837    -1.1441 H       
  40 H40            0.6173    -3.2399     0.2244 H       
  41 H41            0.3912    -2.3742     1.7636 H       
  42 H42           -1.4072    -4.0555     1.3816 H       
  43 H43           -2.0569    -2.3987     1.4334 H       
  44 H44           -2.4278    -2.1496    -2.2019 H       
  45 H45           -2.6538    -1.2839    -0.6627 H       
  46 H46           -0.6293    -0.4684    -1.8199 H       
  47 H47            0.0203    -2.1252    -1.8717 H       
  48 H48            1.2978     6.6967    -3.3080 H       
  49 H49           -1.4868     7.1582    -2.1462 H       
  50 H50           -0.6531     8.2274    -3.2994 H       
  51 H51           -1.1313     6.5856    -3.7936 H       
  52 H52            2.0503     7.1330    -0.9860 H       
  53 H53            1.2049     8.5471    -1.6599 H       
  54 H54            0.3712     7.4779    -0.5066 H       
  55 H55           -3.2393    -4.9167    -0.1052 H       
  56 H56           -3.9434    -3.3310     0.2928 H       
  57 H57           -3.1843    -5.7112    -2.3985 H       
  58 H58           -5.5903    -3.6664    -5.2654 H       
  59 H59           -5.9135    -1.8153    -3.6738 H       
  60 H60           -4.8765    -1.9148    -1.4429 H       
  61 H61            2.1258    -2.1579     1.1604 H       
  62 H62            2.7025    -2.0577    -0.5205 H       
  63 H63            3.1786    -0.8130     0.6594 H       
@<TRIPOS>BOND
   1    1    2 2
   2    1   10 1
   3    1    6 1
   4    2    3 1
   5    2   12 1
   6    3    4 2
   7    3   34 1
   8    4    5 1
   9    4   35 1
  10    5    6 am
  11    5    8 1
  12    6    7 2
  13    8    9 1
  14    8   36 1
  15    8   37 1
  16    9   19 1
  17    9   38 1
  18    9   39 1
  19   10   11 3
  20   12   13 1
  21   12   29 1
  22   13   14 1
  23   13   18 1
  24   14   15 1
  25   14   40 1
  26   14   41 1
  27   15   16 1
  28   15   42 1
  29   15   43 1
  30   16   17 1
  31   16   22 1
  32   17   18 1
  33   17   44 1
  34   17   45 1
  35   18   46 1
  36   18   47 1
  37   19   20 1
  38   19   21 1
  39   19   48 1
  40   20   49 1
  41   20   50 1
  42   20   51 1
  43   21   52 1
  44   21   53 1
  45   21   54 1
  46   22   23 1
  47   22   55 1
  48   22   56 1
  49   23   24 ar
  50   23   28 ar
  51   24   25 ar
  52   24   57 1
  53   25   30 1
  54   25   26 ar
  55   26   27 ar
  56   26   58 1
  57   27   28 ar
  58   27   59 1
  59   28   60 1
  60   29   61 1
  61   29   62 1
  62   29   63 1
  63   30   31 1
  64   30   32 1
  65   30   33 1

#	End of record

