#	Name: ASD02398049
#	Creating user name:	WinNT
#	Creation time:	15. 06. 2019 20:20

#	Modifying user name:	WinNT
#	Modification time:	15. 06. 2019 20:20

#	Program:	/corina/corina34_cracker 3.40 0067  02.08.2006

@<TRIPOS>MOLECULE
ASD02398049
  58   62    0    0    0
SMALL
NO_CHARGES


@<TRIPOS>ATOM
   1 C1             0.0189     1.3004    -0.2149 C.ar    
   2 C2            -0.0741    -0.0628     0.0827 C.ar    
   3 C3            -1.3203    -0.6301     0.3367 C.ar    
   4 C4            -2.4557     0.1539     0.2938 C.ar    
   5 C5            -2.3606     1.5022    -0.0008 C.ar    
   6 C6            -1.1281     2.0766    -0.2494 C.ar    
   7 C7            -3.8037    -0.4613     0.5685 C.3     
   8 C8            -4.1042    -0.3753     2.0427 C.2     
   9 O9            -3.3057     0.1335     2.7933 O.2     
  10 O10           -5.2590    -0.8637     2.5219 O.3     
  11 C11            1.1490    -0.9008     0.1270 C.ar    
  12 C12            2.1010    -0.6968     1.1245 C.ar    
  13 C13            1.3478    -1.8987    -0.8250 C.ar    
  14 C14            2.4877    -2.6759    -0.7786 C.ar    
  15 C15            3.4314    -2.4655     0.2102 C.ar    
  16 C16            3.2367    -1.4797     1.1611 C.ar    
  17 C17            1.8905     0.3770     2.1606 C.3     
  18 N18            2.9504     0.2973     3.1688 N.am    
  19 C19            2.9337    -0.5630     4.3696 C.3     
  20 O20            1.2302     1.8627    -0.4637 O.3     
  21 C21            1.2480     3.2605    -0.7604 C.3     
  22 C22            4.1012     0.9901     3.1516 C.2     
  23 O23            4.7988     0.8632     4.2949 O.3     
  24 C24            4.3727    -0.3797     4.9273 C.3     
  25 O25            4.4719     1.6577     2.2064 O.2     
  26 C26            4.1422    -0.1688     6.4310 C.3     
  27 C27            2.7176     0.3197     6.5674 C.ar    
  28 C28            2.0263     0.0839     5.3965 C.ar    
  29 C29            2.0768     0.9205     7.6395 C.ar    
  30 C30            0.7485     1.2843     7.5402 C.ar    
  31 C31            0.0548     1.0483     6.3678 C.ar    
  32 C32            0.6910     0.4438     5.3008 C.ar    
  33 C33            4.6736    -3.3176     0.2559 C.3     
  34 F34            4.6445    -4.2410    -0.7947 F       
  35 F35            5.8033    -2.5022     0.1290 F       
  36 F36            4.7260    -4.0006     1.4757 F       
  37 H37           -1.3984    -1.6825     0.5667 H       
  38 H38           -3.2530     2.1097    -0.0327 H       
  39 H39           -1.0601     3.1297    -0.4789 H       
  40 H40           -4.5693     0.0767     0.0096 H       
  41 H41           -3.7957    -1.5067     0.2597 H       
  42 H42           -5.4071    -0.7856     3.4743 H       
  43 H43            0.6114    -2.0640    -1.5975 H       
  44 H44            2.6427    -3.4498    -1.5158 H       
  45 H45            3.9769    -1.3197     1.9311 H       
  46 H46            1.9183     1.3554     1.6808 H       
  47 H47            0.9218     0.2347     2.6398 H       
  48 H48            2.6685    -1.5980     4.1542 H       
  49 H49            0.6484     3.4505    -1.6507 H       
  50 H50            0.8345     3.8159     0.0814 H       
  51 H51            2.2744     3.5811    -0.9383 H       
  52 H52            5.0309    -1.2188     4.7019 H       
  53 H53            4.2697    -1.1097     6.9662 H       
  54 H54            4.8346     0.5799     6.8158 H       
  55 H55            2.6183     1.1049     8.5556 H       
  56 H56            0.2522     1.7530     8.3771 H       
  57 H57           -0.9849     1.3295     6.2889 H       
  58 H58            0.1487     0.2595     4.3852 H       
@<TRIPOS>BOND
   1    1    2 ar
   2    1   20 1
   3    1    6 ar
   4    2    3 ar
   5    2   11 1
   6    3    4 ar
   7    3   37 1
   8    4    5 ar
   9    4    7 1
  10    5    6 ar
  11    5   38 1
  12    6   39 1
  13    7    8 1
  14    7   40 1
  15    7   41 1
  16    8    9 2
  17    8   10 1
  18   10   42 1
  19   11   12 ar
  20   11   13 ar
  21   12   17 1
  22   12   16 ar
  23   13   14 ar
  24   13   43 1
  25   14   15 ar
  26   14   44 1
  27   15   16 ar
  28   15   33 1
  29   16   45 1
  30   17   18 1
  31   17   46 1
  32   17   47 1
  33   18   22 am
  34   18   19 1
  35   19   28 1
  36   19   24 1
  37   19   48 1
  38   20   21 1
  39   21   49 1
  40   21   50 1
  41   21   51 1
  42   22   23 1
  43   22   25 2
  44   23   24 1
  45   24   26 1
  46   24   52 1
  47   26   27 1
  48   26   53 1
  49   26   54 1
  50   27   28 ar
  51   27   29 ar
  52   28   32 ar
  53   29   30 ar
  54   29   55 1
  55   30   31 ar
  56   30   56 1
  57   31   32 ar
  58   31   57 1
  59   32   58 1
  60   33   34 1
  61   33   35 1
  62   33   36 1

#	End of record

