#	Name: ASD01148853
#	Creating user name:	WinNT
#	Creation time:	15. 06. 2019 19:03

#	Modifying user name:	WinNT
#	Modification time:	15. 06. 2019 19:03

#	Program:	/corina/corina34_cracker 3.40 0067  02.08.2006

@<TRIPOS>MOLECULE
ASD01148853
  48   50    0    0    0
SMALL
NO_CHARGES


@<TRIPOS>ATOM
   1 N1            -0.0154     1.3412     0.0829 N.pl3   
   2 C2             0.0019     0.0056    -0.1102 C.2     
   3 C3             1.3174    -0.4068    -0.1564 C.2     
   4 C4             2.1210     0.7503     0.0193 C.2     
   5 C5             1.2774     1.8039     0.1631 C.2     
   6 C6             1.7967    -1.7845    -0.3502 C.2     
   7 O7             0.9995    -2.6915    -0.4889 O.2     
   8 O8             3.1198    -2.0407    -0.3738 O.3     
   9 C9             1.6803     3.2117     0.3706 C.ar    
  10 C10            0.7833     4.1219     0.9313 C.ar    
  11 C11            1.1653     5.4338     1.1221 C.ar    
  12 C12            2.4344     5.8477     0.7584 C.ar    
  13 C13            3.3284     4.9503     0.2020 C.ar    
  14 C14            2.9609     3.6342     0.0116 C.ar    
  15 C15           -1.1678     2.1321     0.1803 C.ar    
  16 C16           -2.0091     2.0038     1.2776 C.ar    
  17 C17           -3.1442     2.7847     1.3707 C.ar    
  18 C18           -3.4438     3.6936     0.3722 C.ar    
  19 C19           -2.6081     3.8237    -0.7216 C.ar    
  20 C20           -1.4679     3.0497    -0.8173 C.ar    
  21 S21           -4.2123     2.6226     2.7626 S.o2    
  22 O22           -5.4826     3.0383     2.2799 O.2     
  23 O23           -3.9999     1.2922     3.2143 O.2     
  24 C24           -3.5683     3.8148     3.9686 C.3     
  25 C25           -1.2076    -0.8822    -0.2511 C.3     
  26 C26            3.5202    -3.4226    -0.5690 C.3     
  27 C27            5.0474    -3.5162    -0.5671 C.3     
  28 H28            3.2003     0.7855     0.0354 H       
  29 H29           -0.2079     3.8001     1.2150 H       
  30 H30            0.4721     6.1392     1.5560 H       
  31 H31            2.7284     6.8760     0.9092 H       
  32 H32            4.3175     5.2798    -0.0801 H       
  33 H33            3.6612     2.9336    -0.4187 H       
  34 H34           -1.7761     1.2937     2.0573 H       
  35 H35           -4.3325     4.3027     0.4468 H       
  36 H36           -2.8447     4.5343    -1.4997 H       
  37 H37           -0.8130     3.1552    -1.6696 H       
  38 H38           -3.6041     4.8176     3.5429 H       
  39 H39           -4.1767     3.7820     4.8725 H       
  40 H40           -2.5373     3.5613     4.2152 H       
  41 H41           -1.4888    -0.9491    -1.3020 H       
  42 H42           -0.9736    -1.8776     0.1265 H       
  43 H43           -2.0352    -0.4621     0.3205 H       
  44 H44            3.1177    -4.0350     0.2379 H       
  45 H45            3.1354    -3.7811    -1.5237 H       
  46 H46            5.3480    -4.5536    -0.7136 H       
  47 H47            5.4499    -2.9039    -1.3741 H       
  48 H48            5.4322    -3.1578     0.3876 H       
@<TRIPOS>BOND
   1    1    2 1
   2    1    5 1
   3    1   15 1
   4    2    3 2
   5    2   25 1
   6    3    4 1
   7    3    6 1
   8    4    5 2
   9    4   28 1
  10    5    9 1
  11    6    7 2
  12    6    8 1
  13    8   26 1
  14    9   10 ar
  15    9   14 ar
  16   10   11 ar
  17   10   29 1
  18   11   12 ar
  19   11   30 1
  20   12   13 ar
  21   12   31 1
  22   13   14 ar
  23   13   32 1
  24   14   33 1
  25   15   16 ar
  26   15   20 ar
  27   16   17 ar
  28   16   34 1
  29   17   18 ar
  30   17   21 1
  31   18   19 ar
  32   18   35 1
  33   19   20 ar
  34   19   36 1
  35   20   37 1
  36   21   22 2
  37   21   23 2
  38   21   24 1
  39   24   38 1
  40   24   39 1
  41   24   40 1
  42   25   41 1
  43   25   42 1
  44   25   43 1
  45   26   27 1
  46   26   44 1
  47   26   45 1
  48   27   46 1
  49   27   47 1
  50   27   48 1

#	End of record

