#	Name: ASD01910236
#	Creating user name:	WinNT
#	Creation time:	15. 06. 2019 19:55

#	Modifying user name:	WinNT
#	Modification time:	15. 06. 2019 19:55

#	Program:	/corina/corina34_cracker 3.40 0067  02.08.2006

@<TRIPOS>MOLECULE
ASD01910236
  44   47    0    0    0
SMALL
NO_CHARGES


@<TRIPOS>ATOM
   1 C1             0.6235     0.5053     0.4141 C.2     
   2 C2             1.8010     1.4457     0.3996 C.3     
   3 C3             2.1180     1.8451    -1.0433 C.3     
   4 C4             3.3341     2.7741    -1.0618 C.3     
   5 C5             3.0134     4.0443    -0.2679 C.3     
   6 N6             2.5676     3.6606     1.0785 N.am    
   7 C7             1.4629     2.7009     1.2101 C.3     
   8 C8             3.1608     4.1790     2.1720 C.2     
   9 C9             4.3241     5.0776     2.0253 C.ar    
  10 O10            2.7385     3.9072     3.2791 O.2     
  11 N11            0.6128    -0.7208     0.8744 N.2     
  12 C12           -0.6476    -1.1706     0.6804 C.2     
  13 N13           -1.3216    -0.2005     0.1190 N.2     
  14 O14           -0.6077     0.7679    -0.0352 O.3     
  15 C15           -1.1683    -2.5136     1.0368 C.ar    
  16 C16           -2.4979    -2.8394     0.7760 C.ar    
  17 C17           -2.9778    -4.0893     1.1085 C.ar    
  18 C18           -2.1397    -5.0203     1.7011 C.ar    
  19 C19           -0.8170    -4.7005     1.9622 C.ar    
  20 C20           -0.3276    -3.4547     1.6281 C.ar    
  21 F21           -2.6138    -6.2430     2.0256 F       
  22 C22            4.2627     6.1664     1.1533 C.ar    
  23 C23            5.3508     7.0025     1.0201 C.ar    
  24 C24            6.5048     6.7644     1.7498 C.ar    
  25 C25            6.5719     5.6838     2.6181 C.ar    
  26 C26            5.4871     4.8444     2.7626 C.ar    
  27 F27            7.5682     7.5867     1.6150 F       
  28 Cl28           8.0211     5.3919     3.5282 Cl      
  29 H29            2.6672     0.9508     0.8388 H       
  30 H30            2.3350     0.9512    -1.6282 H       
  31 H31            1.2601     2.3613    -1.4741 H       
  32 H32            4.1860     2.2672    -0.6087 H       
  33 H33            3.5736     3.0394    -2.0916 H       
  34 H34            3.9067     4.6645    -0.1941 H       
  35 H35            2.2213     4.5993    -0.7707 H       
  36 H36            0.5444     3.1463     0.8278 H       
  37 H37            1.3333     2.4346     2.2591 H       
  38 H38           -3.1518    -2.1143     0.3145 H       
  39 H39           -4.0082    -4.3425     0.9071 H       
  40 H40           -0.1672    -5.4290     2.4242 H       
  41 H41            0.7035    -3.2062     1.8319 H       
  42 H42            3.3643     6.3531     0.5837 H       
  43 H43            5.3040     7.8446     0.3454 H       
  44 H44            5.5396     4.0039     3.4388 H       
@<TRIPOS>BOND
   1    1   11 2
   2    1    2 1
   3    1   14 1
   4    2    3 1
   5    2    7 1
   6    2   29 1
   7    3    4 1
   8    3   30 1
   9    3   31 1
  10    4    5 1
  11    4   32 1
  12    4   33 1
  13    5    6 1
  14    5   34 1
  15    5   35 1
  16    6    7 1
  17    6    8 am
  18    7   36 1
  19    7   37 1
  20    8    9 1
  21    8   10 2
  22    9   22 ar
  23    9   26 ar
  24   11   12 1
  25   12   13 2
  26   12   15 1
  27   13   14 1
  28   15   16 ar
  29   15   20 ar
  30   16   17 ar
  31   16   38 1
  32   17   18 ar
  33   17   39 1
  34   18   19 ar
  35   18   21 1
  36   19   20 ar
  37   19   40 1
  38   20   41 1
  39   22   23 ar
  40   22   42 1
  41   23   24 ar
  42   23   43 1
  43   24   25 ar
  44   24   27 1
  45   25   26 ar
  46   25   28 1
  47   26   44 1

#	End of record

