#	Name: ASD01916520
#	Creating user name:	WinNT
#	Creation time:	15. 06. 2019 20:07

#	Modifying user name:	WinNT
#	Modification time:	15. 06. 2019 20:07

#	Program:	/corina/corina34_cracker 3.40 0067  02.08.2006

@<TRIPOS>MOLECULE
ASD01916520
  46   50    0    0    0
SMALL
NO_CHARGES


@<TRIPOS>ATOM
   1 C1            -0.0171     1.4103     0.0098 C.ar    
   2 C2             0.0021    -0.0041     0.0020 C.ar    
   3 C3            -1.1996    -0.7163     0.0279 C.ar    
   4 C4            -2.3710    -0.0066     0.0540 C.ar    
   5 C5            -2.3304     1.3946     0.0519 C.ar    
   6 N6            -1.1782     2.0543     0.0307 N.ar    
   7 N7             1.1621     2.0715     0.0021 N.2     
   8 C8             2.3181     1.4599    -0.0237 C.2     
   9 N9             2.4191     0.1074    -0.0875 N.am    
  10 C10            1.3066    -0.6703    -0.0400 C.2     
  11 C11           -3.5586     2.1308     0.0724 C.1     
  12 O12            1.3907    -1.8848    -0.0326 O.2     
  13 C13           -4.5654     2.7343     0.0892 C.1     
  14 C14           -5.7935     3.4705     0.1097 C.ar    
  15 N15           -5.7663     4.7996     0.1079 N.ar    
  16 C16           -6.8733     5.5121     0.1263 C.ar    
  17 C17           -8.1135     4.8989     0.1484 C.ar    
  18 C18           -8.1891     3.5128     0.1512 C.ar    
  19 C19           -7.0118     2.7867     0.1258 C.ar    
  20 C20            3.5495     2.3444     0.0497 C.3     
  21 N21            4.6887     1.6078    -0.4862 N.3     
  22 C22            4.8162     0.3307     0.2733 C.3     
  23 C23            3.7092    -0.5856    -0.2337 C.3     
  24 C24            5.9884     2.2747    -0.3475 C.3     
  25 C25            7.0368     1.1532    -0.1699 C.3     
  26 C26            6.2164    -0.1629    -0.1398 C.3     
  27 C27            4.7048     0.5587     1.7821 C.3     
  28 H28           -1.2049    -1.7963     0.0269 H       
  29 H29           -3.3192    -0.5230     0.0758 H       
  30 H30           -6.8125     6.5904     0.1245 H       
  31 H31           -9.0149     5.4935     0.1638 H       
  32 H32           -9.1460     3.0123     0.1687 H       
  33 H33           -7.0339     1.7069     0.1272 H       
  34 H34            3.3873     3.2464    -0.5404 H       
  35 H35            3.7443     2.6143     1.0876 H       
  36 H36            3.6988    -1.5050     0.3517 H       
  37 H37            3.8812    -0.8202    -1.2841 H       
  38 H38            6.2090     2.8546    -1.2437 H       
  39 H39            5.9840     2.9247     0.5276 H       
  40 H40            7.7312     1.1474    -1.0101 H       
  41 H41            7.5768     1.2844     0.7678 H       
  42 H42            6.6183    -0.8533     0.6018 H       
  43 H43            6.1889    -0.6252    -1.1265 H       
  44 H44            3.7352     1.0003     2.0122 H       
  45 H45            4.8025    -0.3945     2.3017 H       
  46 H46            5.4974     1.2327     2.1072 H       
@<TRIPOS>BOND
   1    1    2 ar
   2    1    7 1
   3    1    6 ar
   4    2    3 ar
   5    2   10 1
   6    3    4 ar
   7    3   28 1
   8    4    5 ar
   9    4   29 1
  10    5    6 ar
  11    5   11 1
  12    7    8 2
  13    8    9 1
  14    8   20 1
  15    9   10 am
  16    9   23 1
  17   10   12 2
  18   11   13 3
  19   13   14 1
  20   14   15 ar
  21   14   19 ar
  22   15   16 ar
  23   16   17 ar
  24   16   30 1
  25   17   18 ar
  26   17   31 1
  27   18   19 ar
  28   18   32 1
  29   19   33 1
  30   20   21 1
  31   20   34 1
  32   20   35 1
  33   21   22 1
  34   21   24 1
  35   22   23 1
  36   22   27 1
  37   22   26 1
  38   23   36 1
  39   23   37 1
  40   24   25 1
  41   24   38 1
  42   24   39 1
  43   25   26 1
  44   25   40 1
  45   25   41 1
  46   26   42 1
  47   26   43 1
  48   27   44 1
  49   27   45 1
  50   27   46 1

#	End of record

