#	Name: ASD01915982
#	Creating user name:	WinNT
#	Creation time:	15. 06. 2019 20:06

#	Modifying user name:	WinNT
#	Modification time:	15. 06. 2019 20:06

#	Program:	/corina/corina34_cracker 3.40 0067  02.08.2006

@<TRIPOS>MOLECULE
ASD01915982
  39   40    0    0    0
SMALL
NO_CHARGES


@<TRIPOS>ATOM
   1 C1            -0.0169     1.3972     0.0097 C.ar    
   2 C2             0.0021    -0.0041     0.0020 C.ar    
   3 C3             1.2370    -0.6679    -0.0133 C.ar    
   4 C4             2.3903     0.0922    -0.0202 C.ar    
   5 C5             2.2891     1.4841    -0.0118 C.ar    
   6 N6             1.1026     2.0820     0.0027 N.ar    
   7 C7             3.5197     2.3050    -0.0186 C.2     
   8 N8             3.4326     3.6499    -0.0106 N.am    
   9 O9             4.6093     1.7666    -0.0315 O.2     
  10 C10            4.6513     4.4629    -0.0173 C.3     
  11 C11            5.4643     4.1527    -1.2757 C.3     
  12 C12            4.2751     5.9459    -0.0059 C.3     
  13 C13            5.4871     4.1392     1.2226 C.3     
  14 C14           -1.2220    -0.7472     0.0102 C.1     
  15 C15           -2.2255    -1.3564     0.0168 C.1     
  16 C16           -3.4496    -2.0995     0.0250 C.ar    
  17 C17           -3.4229    -3.4969     0.0172 C.ar    
  18 C18           -4.6769    -1.4310     0.0465 C.ar    
  19 C19           -5.8516    -2.1534     0.0542 C.ar    
  20 C20           -5.8173    -3.5368     0.0406 C.ar    
  21 C21           -4.6059    -4.2057     0.0251 C.ar    
  22 H22           -0.9625     1.9189     0.0170 H       
  23 H23            1.2853    -1.7468    -0.0192 H       
  24 H24            3.3590    -0.3851    -0.0317 H       
  25 H25            2.5630     4.0796    -0.0003 H       
  26 H26            4.8688     4.3833    -2.1591 H       
  27 H27            6.3710     4.7576    -1.2808 H       
  28 H28            5.7323     3.0962    -1.2839 H       
  29 H29            3.6958     6.1669     0.8907 H       
  30 H30            5.1818     6.5508    -0.0109 H       
  31 H31            3.6796     6.1765    -0.8892 H       
  32 H32            5.7552     3.0827     1.2145 H       
  33 H33            6.3939     4.7441     1.2176 H       
  34 H34            4.9079     4.3602     2.1191 H       
  35 H35           -2.4783    -4.0203     0.0047 H       
  36 H36           -4.7052    -0.3514     0.0575 H       
  37 H37           -6.8007    -1.6383     0.0712 H       
  38 H38           -6.7405    -4.0973     0.0468 H       
  39 H39           -4.5869    -5.2855     0.0142 H       
@<TRIPOS>BOND
   1    1    2 ar
   2    1    6 ar
   3    1   22 1
   4    2    3 ar
   5    2   14 1
   6    3    4 ar
   7    3   23 1
   8    4    5 ar
   9    4   24 1
  10    5    6 ar
  11    5    7 1
  12    7    8 am
  13    7    9 2
  14    8   10 1
  15    8   25 1
  16   10   11 1
  17   10   12 1
  18   10   13 1
  19   11   26 1
  20   11   27 1
  21   11   28 1
  22   12   29 1
  23   12   30 1
  24   12   31 1
  25   13   32 1
  26   13   33 1
  27   13   34 1
  28   14   15 3
  29   15   16 1
  30   16   17 ar
  31   16   18 ar
  32   17   21 ar
  33   17   35 1
  34   18   19 ar
  35   18   36 1
  36   19   20 ar
  37   19   37 1
  38   20   21 ar
  39   20   38 1
  40   21   39 1

#	End of record

