#	Name: ASD03490032
#	Creating user name:	WinNT
#	Creation time:	15. 06. 2019 20:42

#	Modifying user name:	WinNT
#	Modification time:	15. 06. 2019 20:42

#	Program:	/corina/corina34_cracker 3.40 0067  02.08.2006

@<TRIPOS>MOLECULE
ASD03490032
  64   66    0    0    0
SMALL
NO_CHARGES


@<TRIPOS>ATOM
   1 O1            -0.5645     1.7476     0.8291 O.3     
   2 C2            -0.3448     0.4235     0.8091 C.2     
   3 C3            -1.4829    -0.5250     0.5332 C.3     
   4 O4             0.7654    -0.0078     1.0122 O.2     
   5 O5            -1.0273    -1.8715     0.6797 O.3     
   6 C6            -2.6198    -0.2601     1.5237 C.3     
   7 O7            -1.9577    -0.3249    -0.7997 O.3     
   8 C8            -3.0261    -1.1962    -1.1756 C.3     
   9 C9            -4.2251    -0.9581    -0.2539 C.3     
  10 C10           -3.7957    -1.1864     1.1989 C.3     
  11 C11           -3.4311    -0.9120    -2.6234 C.3     
  12 C12           -2.2876    -1.3074    -3.5598 C.3     
  13 C13           -2.7373    -1.1407    -5.0127 C.3     
  14 O14           -1.6963    -1.6269    -5.9004 O.3     
  15 O15           -1.1573    -0.4690    -3.3119 O.3     
  16 C16           -4.7207     0.4797    -0.4208 C.3     
  17 O17           -5.7650     0.7359     0.5204 O.3     
  18 O18           -3.3941    -2.5470     1.3705 O.3     
  19 C19           -1.9355    -1.5511    -7.2191 C.2     
  20 O20           -2.9801    -1.0937    -7.6183 O.2     
  21 C21           -0.9011    -2.0366    -8.2016 C.3     
  22 N22           -1.1552    -1.4351    -9.5175 N.3     
  23 C23           -0.9785    -3.5376    -8.3120 C.2     
  24 C24           -0.4062    -4.5107    -7.3785 C.ar    
  25 C25           -0.7317    -5.7794    -7.8915 C.ar    
  26 N26           -1.4480    -5.5776    -9.0499 N.pl3   
  27 C27           -1.5900    -4.2365    -9.2813 C.2     
  28 C28            0.3273    -4.4049    -6.1951 C.ar    
  29 C29            0.7258    -5.5361    -5.5407 C.ar    
  30 C30            0.4075    -6.7905    -6.0431 C.ar    
  31 C31           -0.3160    -6.9179    -7.2084 C.ar    
  32 N32           -5.2328     0.6650    -1.7808 N.am    
  33 O33           -4.3319     2.6878    -1.9172 O.2     
  34 C34           -4.9818     1.8104    -2.4452 C.2     
  35 C35           -5.5086     2.0010    -3.8442 C.3     
  36 H36            0.1964     2.3161     1.0103 H       
  37 H37           -0.3059    -2.1098     0.0815 H       
  38 H38           -2.2719    -0.4551     2.5381 H       
  39 H39           -2.9405     0.7784     1.4409 H       
  40 H40           -2.6990    -2.2321    -1.0861 H       
  41 H41           -5.0253    -1.6523    -0.5106 H       
  42 H42           -4.6296    -0.9643     1.8648 H       
  43 H43           -4.3209    -1.4904    -2.8720 H       
  44 H44           -3.6445     0.1506    -2.7390 H       
  45 H45           -2.0147    -2.3475    -3.3810 H       
  46 H46           -3.6514    -1.7111    -5.1778 H       
  47 H47           -2.9252    -0.0865    -5.2161 H       
  48 H48           -1.3278     0.4725    -3.4515 H       
  49 H49           -3.8962     1.1709    -0.2458 H       
  50 H50           -6.5629     0.2092     0.3756 H       
  51 H51           -3.1090    -2.7627     2.2689 H       
  52 H52            0.0917    -1.7485    -7.8560 H       
  53 H53           -0.4379    -1.6941   -10.1781 H       
  54 H54           -2.0702    -1.6875    -9.8598 H       
  55 H55           -1.8023    -6.2813    -9.6157 H       
  56 H56           -2.1104    -3.8043   -10.1232 H       
  57 H57            0.5792    -3.4323    -5.7987 H       
  58 H58            1.2931    -5.4537    -4.6254 H       
  59 H59            0.7298    -7.6755    -5.5147 H       
  60 H60           -0.5588    -7.8982    -7.5909 H       
  61 H61           -5.7526    -0.0367    -2.2031 H       
  62 H62           -6.0640     1.1134    -4.1474 H       
  63 H63           -6.1681     2.8684    -3.8691 H       
  64 H64           -4.6747     2.1589    -4.5281 H       
@<TRIPOS>BOND
   1    1    2 1
   2    1   36 1
   3    2    3 1
   4    2    4 2
   5    3    5 1
   6    3    6 1
   7    3    7 1
   8    5   37 1
   9    6   10 1
  10    6   38 1
  11    6   39 1
  12    7    8 1
  13    8    9 1
  14    8   11 1
  15    8   40 1
  16    9   10 1
  17    9   16 1
  18    9   41 1
  19   10   18 1
  20   10   42 1
  21   11   12 1
  22   11   43 1
  23   11   44 1
  24   12   13 1
  25   12   15 1
  26   12   45 1
  27   13   14 1
  28   13   46 1
  29   13   47 1
  30   14   19 1
  31   15   48 1
  32   16   17 1
  33   16   32 1
  34   16   49 1
  35   17   50 1
  36   18   51 1
  37   19   20 2
  38   19   21 1
  39   21   22 1
  40   21   23 1
  41   21   52 1
  42   22   53 1
  43   22   54 1
  44   23   24 1
  45   23   27 2
  46   24   25 ar
  47   24   28 ar
  48   25   26 1
  49   25   31 ar
  50   26   27 1
  51   26   55 1
  52   27   56 1
  53   28   29 ar
  54   28   57 1
  55   29   30 ar
  56   29   58 1
  57   30   31 ar
  58   30   59 1
  59   31   60 1
  60   32   34 am
  61   32   61 1
  62   33   34 2
  63   34   35 1
  64   35   62 1
  65   35   63 1
  66   35   64 1

#	End of record

