#	Name: ASD01917712
#	Creating user name:	WinNT
#	Creation time:	15. 06. 2019 20:09

#	Modifying user name:	WinNT
#	Modification time:	15. 06. 2019 20:09

#	Program:	/corina/corina34_cracker 3.40 0067  02.08.2006

@<TRIPOS>MOLECULE
ASD01917712
  39   42    0    0    0
SMALL
NO_CHARGES


@<TRIPOS>ATOM
   1 C1            -0.0140     1.4936     0.0246 C.3     
   2 C2             0.0205    -0.0167     0.0083 C.2     
   3 C3             2.4651    -0.1848    -0.4927 C.3     
   4 C4             2.3200     1.2814    -0.9140 C.3     
   5 N5             1.3859     1.9574    -0.0009 N.am    
   6 C6            -1.0012    -0.8651     0.2169 C.2     
   7 C7            -0.5001    -2.1781     0.0956 C.2     
   8 N8             0.7872    -2.0984    -0.1758 N.2     
   9 N9             1.1364    -0.7462    -0.2308 N.pl3   
  10 C10            1.7964     2.9700     0.7881 C.2     
  11 O11            2.9744     3.2666     0.8326 O.2     
  12 C12            0.8141     3.7199     1.5996 C.ar    
  13 C13            1.1698     4.2041     2.8593 C.ar    
  14 C14           -0.4708     3.9514     1.1066 C.ar    
  15 C15           -1.3839     4.6519     1.8679 C.ar    
  16 C16           -1.0291     5.1250     3.1181 C.ar    
  17 C17            0.2468     4.9041     3.6123 C.ar    
  18 C18           -1.2839    -3.4284     0.2473 C.ar    
  19 C19           -0.6521    -4.6616     0.0992 C.ar    
  20 C20           -1.3949    -5.8197     0.2432 C.ar    
  21 C21           -2.7500    -5.7068     0.5317 C.ar    
  22 C22           -3.3122    -4.4485     0.6653 C.ar    
  23 N23           -2.5786    -3.3625     0.5280 N.ar    
  24 F24           -3.5108    -6.8134     0.6797 F       
  25 F25            0.5884     5.3740     4.8321 F       
  26 H26           -0.5441     1.8630    -0.8532 H       
  27 H27           -0.5055     1.8446     0.9320 H       
  28 H28            2.9468    -0.7474    -1.2924 H       
  29 H29            3.0705    -0.2455     0.4117 H       
  30 H30            3.2927     1.7713    -0.8682 H       
  31 H31            1.9341     1.3312    -1.9322 H       
  32 H32           -2.0222    -0.5908     0.4378 H       
  33 H33            2.1639     4.0318     3.2447 H       
  34 H34           -0.7500     3.5832     0.1305 H       
  35 H35           -2.3782     4.8314     1.4864 H       
  36 H36           -1.7476     5.6729     3.7096 H       
  37 H37            0.4031    -4.7125    -0.1254 H       
  38 H38           -0.9326    -6.7896     0.1337 H       
  39 H39           -4.3647    -4.3559     0.8891 H       
@<TRIPOS>BOND
   1    1    2 1
   2    1    5 1
   3    1   26 1
   4    1   27 1
   5    2    6 2
   6    2    9 1
   7    3    4 1
   8    3    9 1
   9    3   28 1
  10    3   29 1
  11    4    5 1
  12    4   30 1
  13    4   31 1
  14    5   10 am
  15    6    7 1
  16    6   32 1
  17    7    8 2
  18    7   18 1
  19    8    9 1
  20   10   11 2
  21   10   12 1
  22   12   14 ar
  23   12   13 ar
  24   13   17 ar
  25   13   33 1
  26   14   15 ar
  27   14   34 1
  28   15   16 ar
  29   15   35 1
  30   16   17 ar
  31   16   36 1
  32   17   25 1
  33   18   19 ar
  34   18   23 ar
  35   19   20 ar
  36   19   37 1
  37   20   21 ar
  38   20   38 1
  39   21   22 ar
  40   21   24 1
  41   22   23 ar
  42   22   39 1

#	End of record

