#	Name: ASD01810193
#	Creating user name:	WinNT
#	Creation time:	15. 06. 2019 19:24

#	Modifying user name:	WinNT
#	Modification time:	15. 06. 2019 19:24

#	Program:	/corina/corina34_cracker 3.40 0067  02.08.2006

@<TRIPOS>MOLECULE
ASD01810193
  44   47    0    0    0
SMALL
NO_CHARGES


@<TRIPOS>ATOM
   1 C1            -0.0167     1.3832     0.0096 C.ar    
   2 C2             0.0021    -0.0041     0.0020 C.ar    
   3 C3             1.1959    -0.6919    -0.0130 C.ar    
   4 C4             2.4007     0.0059    -0.0207 C.ar    
   5 C5             2.3789     1.4111    -0.0130 C.ar    
   6 C6             1.1632     2.0941     0.0022 C.ar    
   7 N7             3.6013    -0.6705    -0.0353 N.pl3   
   8 C8             4.7860    -0.0462    -0.0428 C.2     
   9 C9             4.8924     1.3300    -0.0360 C.2     
  10 C10            3.6622     2.1381    -0.0214 C.2     
  11 O11            3.7023     3.3559    -0.0152 O.2     
  12 C12            6.2117     1.9776    -0.0437 C.2     
  13 O13            6.3025     3.3226    -0.0369 O.3     
  14 O14            7.2212     1.3003    -0.0561 O.2     
  15 C15            3.5807    -2.1353    -0.0424 C.3     
  16 C16            3.5604    -2.6305    -1.4656 C.ar    
  17 C17            4.7503    -2.8737    -2.1276 C.ar    
  18 C18            4.7376    -3.3273    -3.4311 C.ar    
  19 C19            3.5231    -3.5401    -4.0801 C.ar    
  20 C20            2.3275    -3.2935    -3.4084 C.ar    
  21 C21            2.3519    -2.8455    -2.1032 C.ar    
  22 C22            3.5031    -4.0273    -5.4816 C.ar    
  23 C23            2.2887    -4.2401    -6.1306 C.ar    
  24 C24            2.2759    -4.6933    -7.4342 C.ar    
  25 C25            3.4659    -4.9366    -8.0962 C.ar    
  26 C26            4.6743    -4.7274    -7.4566 C.ar    
  27 C27            4.6988    -4.2680    -6.1553 C.ar    
  28 H28           -0.9606     1.9081     0.0170 H       
  29 H29           -0.9293    -0.5508     0.0083 H       
  30 H30            1.1970    -1.7719    -0.0185 H       
  31 H31            1.1468     3.1740     0.0078 H       
  32 H32            5.6885    -0.6393    -0.0542 H       
  33 H33            7.1917     3.7026    -0.0424 H       
  34 H34            4.4703    -2.5136     0.4612 H       
  35 H35            2.6906    -2.4887     0.4779 H       
  36 H36            5.6911    -2.7080    -1.6237 H       
  37 H37            5.6673    -3.5165    -3.9471 H       
  38 H38            1.3834    -3.4568    -3.9068 H       
  39 H39            1.4258    -2.6540    -1.5817 H       
  40 H40            1.3590    -4.0512    -5.6145 H       
  41 H41            1.3352    -4.8587    -7.9382 H       
  42 H42            3.4513    -5.2915    -9.1161 H       
  43 H43            5.6005    -4.9193    -7.9780 H       
  44 H44            5.6429    -4.1047    -5.6569 H       
@<TRIPOS>BOND
   1    1    2 ar
   2    1    6 ar
   3    1   28 1
   4    2    3 ar
   5    2   29 1
   6    3    4 ar
   7    3   30 1
   8    4    5 ar
   9    4    7 1
  10    5    6 ar
  11    5   10 1
  12    6   31 1
  13    7    8 1
  14    7   15 1
  15    8    9 2
  16    8   32 1
  17    9   10 1
  18    9   12 1
  19   10   11 2
  20   12   13 1
  21   12   14 2
  22   13   33 1
  23   15   16 1
  24   15   34 1
  25   15   35 1
  26   16   17 ar
  27   16   21 ar
  28   17   18 ar
  29   17   36 1
  30   18   19 ar
  31   18   37 1
  32   19   20 ar
  33   19   22 1
  34   20   21 ar
  35   20   38 1
  36   21   39 1
  37   22   23 ar
  38   22   27 ar
  39   23   24 ar
  40   23   40 1
  41   24   25 ar
  42   24   41 1
  43   25   26 ar
  44   25   42 1
  45   26   27 ar
  46   26   43 1
  47   27   44 1

#	End of record

