#	Name: ASD03731247
#	Creating user name:	WinNT
#	Creation time:	15. 06. 2019 20:45

#	Modifying user name:	WinNT
#	Modification time:	15. 06. 2019 20:45

#	Program:	/corina/corina34_cracker 3.40 0067  02.08.2006

@<TRIPOS>MOLECULE
ASD03731247
  62   67    0    0    0
SMALL
NO_CHARGES


@<TRIPOS>ATOM
   1 N1            -0.0162     1.3436     0.0094 N.am    
   2 C2            -0.1430     0.0018     0.0227 C.2     
   3 O3             0.8431    -0.7030    -0.0726 O.2     
   4 N4            -1.3630    -0.5586     0.1417 N.am    
   5 C5            -1.5008    -2.0170     0.1561 C.3     
   6 C6            -2.9781    -2.3882     0.2999 C.3     
   7 O7             1.4547    -7.7801     2.0229 O.3     
   8 C8             1.7490    -9.1729     2.2387 C.3     
   9 O9             0.5608    -9.6791     2.8751 O.3     
  10 C10           -0.4554    -8.8745     2.4454 C.ar    
  11 C11            0.0948    -7.7065     1.9224 C.ar    
  12 C12           -1.8279    -9.0474     2.4575 C.ar    
  13 C13           -2.6675    -8.0598     1.9512 C.ar    
  14 C14           -2.1064    -6.8939     1.4391 C.ar    
  15 C15           -0.7381    -6.7210     1.4200 C.ar    
  16 O16           -4.0277    -8.0378     1.8535 O.3     
  17 C17           -3.2532    -6.0221     1.0020 C.3     
  18 C18           -4.4689    -6.6787     1.6702 C.3     
  19 N19           -3.1160    -3.8467     0.3144 N.am    
  20 C20           -3.0791    -4.5949     1.4350 C.2     
  21 C21           -3.3947    -5.9706    -0.4903 C.ar    
  22 C22           -3.5799    -6.9286    -1.4621 C.ar    
  23 C23           -3.6767    -6.5575    -2.7914 C.ar    
  24 C24           -3.5864    -5.2226    -3.1417 C.ar    
  25 C25           -3.3999    -4.2595    -2.1721 C.ar    
  26 C26           -3.3018    -4.6238    -0.8315 C.ar    
  27 O27           -2.9342    -4.1939     2.5705 O.2     
  28 C28            1.2580     1.9269    -0.0003 C.ar    
  29 C29            1.4755     3.1077    -0.6974 C.ar    
  30 C30            2.7351     3.6829    -0.7061 C.ar    
  31 C31            3.7804     3.0760    -0.0158 C.ar    
  32 C32            3.5598     1.8981     0.6786 C.ar    
  33 C33            2.3009     1.3271     0.6918 C.ar    
  34 O34            5.0188     3.6396    -0.0237 O.3     
  35 C35            6.0442     2.9628     0.7060 C.3     
  36 O36            2.9506     4.8392    -1.3886 O.3     
  37 C37            1.8324     5.4058    -2.0745 C.3     
  38 H38           -0.8069     1.9054     0.0025 H       
  39 H39           -2.1497     0.0037     0.2177 H       
  40 H40           -1.1120    -2.4280    -0.7755 H       
  41 H41           -0.9398    -2.4267     0.9961 H       
  42 H42           -3.3670    -1.9773     1.2316 H       
  43 H43           -3.5391    -1.9786    -0.5400 H       
  44 H44            1.9203    -9.6797     1.2890 H       
  45 H45            2.6121    -9.2848     2.8949 H       
  46 H46           -2.2506    -9.9550     2.8625 H       
  47 H47           -0.3154    -5.8146     1.0124 H       
  48 H48           -5.3390    -6.6392     1.0148 H       
  49 H49           -4.6840    -6.2087     2.6298 H       
  50 H50           -3.6500    -7.9704    -1.1862 H       
  51 H51           -3.8229    -7.3085    -3.5537 H       
  52 H52           -3.6619    -4.9330    -4.1794 H       
  53 H53           -3.3298    -3.2191    -2.4536 H       
  54 H54            0.6633     3.5769    -1.2327 H       
  55 H55            4.3713     1.4274     1.2138 H       
  56 H56            2.1298     0.4110     1.2374 H       
  57 H57            5.7594     2.8961     1.7560 H       
  58 H58            6.1765     1.9595     0.3009 H       
  59 H59            6.9790     3.5164     0.6175 H       
  60 H60            1.4606     4.6951    -2.8125 H       
  61 H61            1.0429     5.6317    -1.3577 H       
  62 H62            2.1406     6.3230    -2.5764 H       
@<TRIPOS>BOND
   1    1    2 am
   2    1   28 1
   3    1   38 1
   4    2    3 2
   5    2    4 am
   6    4    5 1
   7    4   39 1
   8    5    6 1
   9    5   40 1
  10    5   41 1
  11    6   19 1
  12    6   42 1
  13    6   43 1
  14    7    8 1
  15    7   11 1
  16    8    9 1
  17    8   44 1
  18    8   45 1
  19    9   10 1
  20   10   11 ar
  21   10   12 ar
  22   11   15 ar
  23   12   13 ar
  24   12   46 1
  25   13   14 ar
  26   13   16 1
  27   14   15 ar
  28   14   17 1
  29   15   47 1
  30   16   18 1
  31   17   18 1
  32   17   20 1
  33   17   21 1
  34   18   48 1
  35   18   49 1
  36   19   20 am
  37   19   26 1
  38   20   27 2
  39   21   22 ar
  40   21   26 ar
  41   22   23 ar
  42   22   50 1
  43   23   24 ar
  44   23   51 1
  45   24   25 ar
  46   24   52 1
  47   25   26 ar
  48   25   53 1
  49   28   29 ar
  50   28   33 ar
  51   29   30 ar
  52   29   54 1
  53   30   31 ar
  54   30   36 1
  55   31   32 ar
  56   31   34 1
  57   32   33 ar
  58   32   55 1
  59   33   56 1
  60   34   35 1
  61   35   57 1
  62   35   58 1
  63   35   59 1
  64   36   37 1
  65   37   60 1
  66   37   61 1
  67   37   62 1

#	End of record

