#	Name: ASD02560398
#	Creating user name:	WinNT
#	Creation time:	15. 06. 2019 20:25

#	Modifying user name:	WinNT
#	Modification time:	15. 06. 2019 20:25

#	Program:	/corina/corina34_cracker 3.40 0067  02.08.2006

@<TRIPOS>MOLECULE
ASD02560398
  49   51    0    0    0
SMALL
NO_CHARGES


@<TRIPOS>ATOM
   1 C1            -0.0170     1.4022     0.0098 C.2     
   2 C2             0.0021    -0.0041     0.0020 C.2     
   3 C3             1.1743    -0.6696    -0.0123 C.2     
   4 N4             2.3612     0.0114    -0.0195 N.pl3   
   5 C5             2.3736     1.3873    -0.0127 C.2     
   6 C6             1.1535     2.0938     0.0023 C.2     
   7 C7             3.6659    -0.4006    -0.0340 C.2     
   8 C8             4.4368     0.7161    -0.0358 C.2     
   9 N9             3.6353     1.7872    -0.0227 N.2     
  10 C10            5.9435     0.7449    -0.0496 C.3     
  11 N11            4.1201    -1.7252    -0.0446 N.3     
  12 C12            2.9936    -2.6680    -0.0388 C.3     
  13 C13            3.5283    -4.1015    -0.0506 C.3     
  14 C14            2.3550    -5.0835    -0.0445 C.3     
  15 C15            6.4281     1.4818    -1.2998 C.3     
  16 C16            6.4512     1.4697     1.1986 C.3     
  17 C17            2.8897    -6.5170    -0.0564 C.3     
  18 O18            1.7939    -7.4342    -0.0507 O.3     
  19 C19            2.0979    -8.7589    -0.0599 C.ar    
  20 C20            1.0831    -9.7041    -0.0551 C.ar    
  21 C21            1.3945   -11.0513    -0.0644 C.ar    
  22 C22            2.7186   -11.4560    -0.0786 C.ar    
  23 C23            3.7316   -10.5137    -0.0834 C.ar    
  24 C24            3.4239    -9.1670    -0.0799 C.ar    
  25 Cl25           3.1080   -13.1478    -0.0897 Cl      
  26 Cl26           0.1251   -12.2355    -0.0578 Cl      
  27 H27           -0.9586     1.9311     0.0171 H       
  28 H28           -0.9275    -0.5538     0.0079 H       
  29 H29            1.1768    -1.7496    -0.0178 H       
  30 H30            1.1487     3.1738     0.0074 H       
  31 H31            6.3264    -0.2757    -0.0580 H       
  32 H32            4.7278    -1.8928    -0.8325 H       
  33 H33            2.3935    -2.5115     0.8576 H       
  34 H34            2.3770    -2.5029    -0.9223 H       
  35 H35            4.1284    -4.2581    -0.9470 H       
  36 H36            4.1449    -4.2667     0.8329 H       
  37 H37            1.7549    -4.9270     0.8518 H       
  38 H38            1.7384    -4.9184    -0.9281 H       
  39 H39            6.0453     2.5023    -1.2913 H       
  40 H40            7.5179     1.5026    -1.3098 H       
  41 H41            6.0664     0.9654    -2.1890 H       
  42 H42            6.1060     0.9447     2.0892 H       
  43 H43            7.5409     1.4905     1.1886 H       
  44 H44            6.0683     2.4902     1.2070 H       
  45 H45            3.4898    -6.6735    -0.9527 H       
  46 H46            3.5063    -6.6821     0.8271 H       
  47 H47            0.0504    -9.3882    -0.0437 H       
  48 H48            4.7638   -10.8312    -0.0941 H       
  49 H49            4.2152    -8.4321    -0.0836 H       
@<TRIPOS>BOND
   1    1    2 1
   2    1    6 2
   3    1   27 1
   4    2    3 2
   5    2   28 1
   6    3    4 1
   7    3   29 1
   8    4    5 1
   9    4    7 1
  10    5    6 1
  11    5    9 2
  12    6   30 1
  13    7    8 2
  14    7   11 1
  15    8    9 1
  16    8   10 1
  17   10   15 1
  18   10   16 1
  19   10   31 1
  20   11   12 1
  21   11   32 1
  22   12   13 1
  23   12   33 1
  24   12   34 1
  25   13   14 1
  26   13   35 1
  27   13   36 1
  28   14   17 1
  29   14   37 1
  30   14   38 1
  31   15   39 1
  32   15   40 1
  33   15   41 1
  34   16   42 1
  35   16   43 1
  36   16   44 1
  37   17   18 1
  38   17   45 1
  39   17   46 1
  40   18   19 1
  41   19   20 ar
  42   19   24 ar
  43   20   21 ar
  44   20   47 1
  45   21   22 ar
  46   21   26 1
  47   22   23 ar
  48   22   25 1
  49   23   24 ar
  50   23   48 1
  51   24   49 1

#	End of record

