#	Name: ASD01941079
#	Creating user name:	WinNT
#	Creation time:	15. 06. 2019 20:13

#	Modifying user name:	WinNT
#	Modification time:	15. 06. 2019 20:13

#	Program:	/corina/corina34_cracker 3.40 0067  02.08.2006

@<TRIPOS>MOLECULE
ASD01941079
  26   27    0    0    0
SMALL
NO_CHARGES


@<TRIPOS>ATOM
   1 C1             0.0158     1.3540     0.1808 C.ar    
   2 C2            -0.2245     0.8928     1.4696 C.ar    
   3 C3            -1.3620     0.1516     1.7389 C.ar    
   4 C4            -2.2692    -0.1362     0.7271 C.ar    
   5 C5            -2.0472     0.3124    -0.5546 C.ar    
   6 C6            -0.9047     1.0683    -0.8428 C.ar    
   7 F7            -1.5911    -0.2950     2.9932 F       
   8 F8             0.6526     1.1675     2.4597 F       
   9 C9            -0.6628     1.5496    -2.2092 C.2     
  10 O10            0.2755     2.2861    -2.4362 O.2     
  11 F11           -1.4844     1.1729    -3.2134 F       
  12 N12            1.1567     2.0983    -0.0933 N.pl3   
  13 C13            2.3633     1.4500    -0.3772 C.ar    
  14 C14            3.5313     2.1887    -0.5344 C.ar    
  15 C15            4.7220     1.5439    -0.8150 C.ar    
  16 C16            4.7511     0.1665    -0.9396 C.ar    
  17 C17            3.5905    -0.5700    -0.7836 C.ar    
  18 C18            2.3988     0.0671    -0.4971 C.ar    
  19 F19            3.5025     3.5340    -0.4135 F       
  20 I20            6.5568    -0.8064    -1.3661 I       
  21 H21           -3.1536    -0.7156     0.9476 H       
  22 H22           -2.7563     0.0853    -1.3369 H       
  23 H23            1.1164     3.0674    -0.0879 H       
  24 H24            5.6298     2.1161    -0.9373 H       
  25 H25            3.6169    -1.6452    -0.8820 H       
  26 H26            1.4936    -0.5092    -0.3753 H       
@<TRIPOS>BOND
   1    1    2 ar
   2    1   12 1
   3    1    6 ar
   4    2    3 ar
   5    2    8 1
   6    3    4 ar
   7    3    7 1
   8    4    5 ar
   9    4   21 1
  10    5    6 ar
  11    5   22 1
  12    6    9 1
  13    9   10 2
  14    9   11 1
  15   12   13 1
  16   12   23 1
  17   13   14 ar
  18   13   18 ar
  19   14   15 ar
  20   14   19 1
  21   15   16 ar
  22   15   24 1
  23   16   17 ar
  24   16   20 1
  25   17   18 ar
  26   17   25 1
  27   18   26 1

#	End of record

