#	Name: ASD00170200
#	Creating user name:	WinNT
#	Creation time:	15. 06. 2019 18:31

#	Modifying user name:	WinNT
#	Modification time:	15. 06. 2019 18:31

#	Program:	/corina/corina34_cracker 3.40 0067  02.08.2006

@<TRIPOS>MOLECULE
ASD00170200
  52   55    0    0    0
SMALL
NO_CHARGES


@<TRIPOS>ATOM
   1 C1            -1.0895     1.5240    -0.9459 C.2     
   2 C2            -1.3540     0.2405    -1.1983 C.2     
   3 C3            -1.3329    -0.5771     0.0065 C.2     
   4 C4            -1.0549     0.1374     1.1421 C.2     
   5 S5            -0.8115     1.7801     0.7718 S.3     
   6 C6            -1.0272     2.6222    -1.9873 C.3     
   7 C7            -2.2474     2.5449    -2.9031 C.3     
   8 C8            -1.9289     1.6392    -4.0895 C.3     
   9 C9            -0.9834     0.5234    -3.6502 C.3     
  10 C10           -1.6568    -0.3245    -2.5755 C.3     
  11 N11           -0.9791    -0.4015     2.4103 N.pl3   
  12 C12           -1.5842    -2.0179     0.0047 C.2     
  13 C13           -2.9671    -2.5278     0.1313 C.ar    
  14 O14           -0.6550    -2.7978    -0.1010 O.2     
  15 C15           -3.2229    -3.8952     0.0192 C.ar    
  16 C16           -4.5148    -4.3642     0.1387 C.ar    
  17 C17           -5.5557    -3.4822     0.3687 C.ar    
  18 C18           -5.3090    -2.1253     0.4804 C.ar    
  19 C19           -4.0209    -1.6440     0.3690 C.ar    
  20 C20           -6.9645    -4.0016     0.4976 C.3     
  21 C21           -7.5188    -3.6356     1.8759 C.3     
  22 C22           -8.9491    -4.1630     2.0069 C.3     
  23 C23           -9.8256    -3.5348     0.9215 C.3     
  24 C24           -9.2713    -3.9007    -0.4568 C.3     
  25 C25           -7.8410    -3.3734    -0.5878 C.3     
  26 H26           -1.0093     3.5918    -1.4897 H       
  27 H27           -0.1209     2.5060    -2.5817 H       
  28 H28           -3.0927     2.1359    -2.3496 H       
  29 H29           -2.4960     3.5431    -3.2635 H       
  30 H30           -2.8523     1.2027    -4.4702 H       
  31 H31           -1.4555     2.2262    -4.8766 H       
  32 H32           -0.7393    -0.1040    -4.5074 H       
  33 H33           -0.0691     0.9597    -3.2481 H       
  34 H34           -1.2849    -1.3473    -2.6364 H       
  35 H35           -2.7348    -0.3238    -2.7374 H       
  36 H36           -1.2025    -1.3342     2.5551 H       
  37 H37           -0.7024     0.1525     3.1569 H       
  38 H38           -2.4114    -4.5847    -0.1611 H       
  39 H39           -4.7141    -5.4222     0.0521 H       
  40 H40           -6.1259    -1.4420     0.6596 H       
  41 H41           -3.8295    -0.5847     0.4564 H       
  42 H42           -6.9642    -5.0854     0.3822 H       
  43 H43           -6.8944    -4.0832     2.6492 H       
  44 H44           -7.5192    -2.5518     1.9914 H       
  45 H45           -8.9487    -5.2468     1.8915 H       
  46 H46           -9.3440    -3.9023     2.9888 H       
  47 H47          -10.8446    -3.9105     1.0147 H       
  48 H48           -9.8260    -2.4509     1.0369 H       
  49 H49           -9.2709    -4.9846    -0.5722 H       
  50 H50           -9.8957    -3.4532    -1.2301 H       
  51 H51           -7.8414    -2.2895    -0.4723 H       
  52 H52           -7.4461    -3.6341    -1.5697 H       
@<TRIPOS>BOND
   1    1    2 2
   2    1    6 1
   3    1    5 1
   4    2    3 1
   5    2   10 1
   6    3    4 2
   7    3   12 1
   8    4    5 1
   9    4   11 1
  10    6    7 1
  11    6   26 1
  12    6   27 1
  13    7    8 1
  14    7   28 1
  15    7   29 1
  16    8    9 1
  17    8   30 1
  18    8   31 1
  19    9   10 1
  20    9   32 1
  21    9   33 1
  22   10   34 1
  23   10   35 1
  24   11   36 1
  25   11   37 1
  26   12   13 1
  27   12   14 2
  28   13   15 ar
  29   13   19 ar
  30   15   16 ar
  31   15   38 1
  32   16   17 ar
  33   16   39 1
  34   17   18 ar
  35   17   20 1
  36   18   19 ar
  37   18   40 1
  38   19   41 1
  39   20   21 1
  40   20   25 1
  41   20   42 1
  42   21   22 1
  43   21   43 1
  44   21   44 1
  45   22   23 1
  46   22   45 1
  47   22   46 1
  48   23   24 1
  49   23   47 1
  50   23   48 1
  51   24   25 1
  52   24   49 1
  53   24   50 1
  54   25   51 1
  55   25   52 1

#	End of record

