#	Name: ASD07300228
#	Creating user name:	WinNT
#	Creation time:	15. 06. 2019 21:09

#	Modifying user name:	WinNT
#	Modification time:	15. 06. 2019 21:09

#	Program:	/corina/corina34_cracker 3.40 0067  02.08.2006

@<TRIPOS>MOLECULE
ASD07300228
  44   49    0    0    0
SMALL
NO_CHARGES


@<TRIPOS>ATOM
   1 C1            -0.0169     1.3941     0.0097 C.ar    
   2 C2             0.0021    -0.0041     0.0020 C.ar    
   3 C3             1.2199    -0.6674    -0.0136 C.ar    
   4 C4             2.3808     0.0923    -0.0210 C.ar    
   5 C5             2.2878     1.4714    -0.0127 C.ar    
   6 N6             1.1161     2.0768     0.0026 N.ar    
   7 C7            -2.1139     0.6622     0.0347 C.2     
   8 N8            -1.3542     1.7734     0.0301 N.am    
   9 N9            -1.3234    -0.4279     0.0129 N.am    
  10 O10           -3.3304     0.6453     0.0517 O.2     
  11 C11           -1.8317     3.0925     0.0441 C.ar    
  12 C12           -3.1985     3.3357     0.0642 C.ar    
  13 C13           -3.6686     4.6336     0.0780 C.ar    
  14 C14           -2.7742     5.6962     0.0722 C.ar    
  15 C15           -1.4069     5.4526     0.0526 C.ar    
  16 C16           -0.9373     4.1545     0.0437 C.ar    
  17 C17           -4.5832     7.3814     0.1056 C.2     
  18 N18           -5.7737     6.8079     0.1185 N.2     
  19 C19           -6.7426     7.7571     0.1296 C.ar    
  20 C20           -6.0981     9.0043     0.1231 C.ar    
  21 N21           -4.7387     8.7331     0.1080 N.pl3   
  22 C22           -8.1389     7.7053     0.1446 C.ar    
  23 C23           -8.8663     8.8747     0.1528 C.ar    
  24 C24           -8.2240    10.1036     0.1463 C.ar    
  25 C25           -6.8455    10.1715     0.1315 C.ar    
  26 N26           -3.2506     7.0124     0.0857 N.pl3   
  27 C27           -2.4152     8.2182     0.0810 C.3     
  28 C28           -3.4204     9.3823     0.0937 C.3     
  29 H29            1.2635    -1.7465    -0.0195 H       
  30 H30            3.3475    -0.3890    -0.0328 H       
  31 H31            3.1908     2.0638    -0.0185 H       
  32 H32           -1.6258    -1.3496     0.0104 H       
  33 H33           -3.8940     2.5095     0.0687 H       
  34 H34           -4.7318     4.8228     0.0929 H       
  35 H35           -0.7112     6.2786     0.0482 H       
  36 H36            0.1259     3.9650     0.0323 H       
  37 H37           -8.6459     6.7517     0.1494 H       
  38 H38           -9.9455     8.8343     0.1641 H       
  39 H39           -8.8060    11.0133     0.1525 H       
  40 H40           -6.3507    11.1315     0.1265 H       
  41 H41           -1.7827     8.2465     0.9683 H       
  42 H42           -1.8068     8.2562    -0.8225 H       
  43 H43           -3.3065     9.9919    -0.8027 H       
  44 H44           -3.2867     9.9910     0.9880 H       
@<TRIPOS>BOND
   1    1    2 ar
   2    1    6 ar
   3    1    8 1
   4    2    3 ar
   5    2    9 1
   6    3    4 ar
   7    3   29 1
   8    4    5 ar
   9    4   30 1
  10    5    6 ar
  11    5   31 1
  12    7    8 am
  13    7    9 am
  14    7   10 2
  15    8   11 1
  16    9   32 1
  17   11   12 ar
  18   11   16 ar
  19   12   13 ar
  20   12   33 1
  21   13   14 ar
  22   13   34 1
  23   14   15 ar
  24   14   26 1
  25   15   16 ar
  26   15   35 1
  27   16   36 1
  28   17   18 2
  29   17   21 1
  30   17   26 1
  31   18   19 1
  32   19   20 ar
  33   19   22 ar
  34   20   21 1
  35   20   25 ar
  36   21   28 1
  37   22   23 ar
  38   22   37 1
  39   23   24 ar
  40   23   38 1
  41   24   25 ar
  42   24   39 1
  43   25   40 1
  44   26   27 1
  45   27   28 1
  46   27   41 1
  47   27   42 1
  48   28   43 1
  49   28   44 1

#	End of record

