#	Name: ASD01816535
#	Creating user name:	WinNT
#	Creation time:	15. 06. 2019 19:35

#	Modifying user name:	WinNT
#	Modification time:	15. 06. 2019 19:35

#	Program:	/corina/corina34_cracker 3.40 0067  02.08.2006

@<TRIPOS>MOLECULE
ASD01816535
  61   66    0    0    0
SMALL
NO_CHARGES


@<TRIPOS>ATOM
   1 C1            -0.0788     1.4325     0.1438 C.ar    
   2 C2            -0.0719     0.0471     0.1425 C.ar    
   3 C3             1.1182    -0.6500     0.1108 C.ar    
   4 C4             2.3268     0.0366     0.0803 C.ar    
   5 C5             2.3163     1.4413     0.0816 C.ar    
   6 C6             1.1100     2.1326     0.1133 C.ar    
   7 N7             3.5245    -0.6569     0.0493 N.pl3   
   8 C8             4.7211    -0.0485     0.0190 C.2     
   9 C9             4.8358     1.3195     0.0167 C.2     
  10 C10            3.6104     2.1500     0.0489 C.2     
  11 C11            5.9408     2.2726    -0.0119 C.2     
  12 N12            5.3786     3.5005     0.0026 N.am    
  13 N13            3.9858     3.3959     0.0390 N.2     
  14 C14            6.1230     4.7622    -0.0159 C.3     
  15 O15            7.1327     2.0124    -0.0423 O.2     
  16 C16            3.4847    -2.1213     0.0502 C.3     
  17 C17            3.4344    -2.6233    -1.3698 C.ar    
  18 C18            4.6089    -2.8858    -2.0508 C.ar    
  19 C19            4.5661    -3.3455    -3.3526 C.ar    
  20 C20            3.3422    -3.5445    -3.9771 C.ar    
  21 C21            2.1646    -3.2805    -3.2906 C.ar    
  22 C22            2.2138    -2.8259    -1.9873 C.ar    
  23 N23            3.2955    -4.0106    -5.2984 N.pl3   
  24 C24            2.1764    -4.2458    -6.0202 C.2     
  25 C25            2.5591    -4.6843    -7.2418 C.2     
  26 C26            3.9577    -4.7186    -7.2686 C.2     
  27 N27            4.3998    -4.3094    -6.1067 N.2     
  28 C28            5.7293     5.5683    -1.2558 C.3     
  29 C29            6.5348     6.8709    -1.2900 C.3     
  30 N30            6.3374     7.5825    -0.0199 N.am    
  31 C31            6.6000     6.8695     1.2376 C.3     
  32 C32            5.7938     5.5669     1.2435 C.3     
  33 C33            5.9236     8.8652    -0.0085 C.2     
  34 O34            5.6650     9.4096     1.0439 O.2     
  35 C35            5.7822     9.6228    -1.3035 C.3     
  36 H36           -1.0175     1.9661     0.1642 H       
  37 H37           -1.0072    -0.4924     0.1668 H       
  38 H38            1.1110    -1.7299     0.1101 H       
  39 H39            1.1036     3.2126     0.1147 H       
  40 H40            5.6170    -0.6513    -0.0037 H       
  41 H41            7.1923     4.5526    -0.0435 H       
  42 H42            4.3773    -2.5088     0.5412 H       
  43 H43            2.5986    -2.4603     0.5870 H       
  44 H44            5.5607    -2.7308    -1.5645 H       
  45 H45            5.4837    -3.5497    -3.8842 H       
  46 H46            1.2111    -3.4340    -3.7739 H       
  47 H47            1.2982    -2.6204    -1.4527 H       
  48 H48            1.1599    -4.1089    -5.6822 H       
  49 H49            1.9012    -4.9593    -8.0530 H       
  50 H50            4.5674    -5.0256    -8.1055 H       
  51 H51            5.9424     4.9851    -2.1516 H       
  52 H52            4.6649     5.7997    -1.2164 H       
  53 H53            7.5927     6.6430    -1.4206 H       
  54 H54            6.1884     7.4931    -2.1152 H       
  55 H55            7.6632     6.6415     1.3132 H       
  56 H56            6.2967     7.4909     2.0802 H       
  57 H57            4.7287     5.7984     1.2594 H       
  58 H58            6.0528     4.9828     2.1266 H       
  59 H59            6.1501     9.0089    -2.1256 H       
  60 H60            4.7323     9.8632    -1.4711 H       
  61 H61            6.3620    10.5443    -1.2505 H       
@<TRIPOS>BOND
   1    1    2 ar
   2    1    6 ar
   3    1   36 1
   4    2    3 ar
   5    2   37 1
   6    3    4 ar
   7    3   38 1
   8    4    5 ar
   9    4    7 1
  10    5    6 ar
  11    5   10 1
  12    6   39 1
  13    7    8 1
  14    7   16 1
  15    8    9 2
  16    8   40 1
  17    9   10 1
  18    9   11 1
  19   10   13 2
  20   11   12 am
  21   11   15 2
  22   12   13 1
  23   12   14 1
  24   14   28 1
  25   14   32 1
  26   14   41 1
  27   16   17 1
  28   16   42 1
  29   16   43 1
  30   17   18 ar
  31   17   22 ar
  32   18   19 ar
  33   18   44 1
  34   19   20 ar
  35   19   45 1
  36   20   21 ar
  37   20   23 1
  38   21   22 ar
  39   21   46 1
  40   22   47 1
  41   23   24 1
  42   23   27 1
  43   24   25 2
  44   24   48 1
  45   25   26 1
  46   25   49 1
  47   26   27 2
  48   26   50 1
  49   28   29 1
  50   28   51 1
  51   28   52 1
  52   29   30 1
  53   29   53 1
  54   29   54 1
  55   30   31 1
  56   30   33 am
  57   31   32 1
  58   31   55 1
  59   31   56 1
  60   32   57 1
  61   32   58 1
  62   33   34 2
  63   33   35 1
  64   35   59 1
  65   35   60 1
  66   35   61 1

#	End of record

