#	Name: ASD08170161
#	Creating user name:	WinNT
#	Creation time:	15. 06. 2019 21:17

#	Modifying user name:	WinNT
#	Modification time:	15. 06. 2019 21:17

#	Program:	/corina/corina34_cracker 3.40 0067  02.08.2006

@<TRIPOS>MOLECULE
ASD08170161
  77   78    0    0    0
SMALL
NO_CHARGES


@<TRIPOS>ATOM
   1 Cl1            0.0000     0.0000     0.0000 Cl      
   2 H2             0.0000     1.3700     0.0000 H       
   3 Cl3            5.0000     6.3700     5.0000 Cl      
   4 H4             5.0000     7.7400     5.0000 H       
   5 C5            13.1661    23.7358    14.1594 C.3     
   6 C6            16.3387    26.5113    14.1440 C.3     
   7 C7            16.4905    28.0337    14.1507 C.3     
   8 C8            17.9540    28.3927    14.1387 C.2     
   9 C9            13.1866    22.2290    14.1511 C.2     
  10 S10           18.9781    28.6328    15.5548 S.3     
  11 C11           20.3008    28.9645    14.5179 C.2     
  12 N12           19.8972    28.8749    13.2865 N.2     
  13 N13           18.6873    28.5747    13.0867 N.2     
  14 S14           13.1871    21.1963    12.7210 S.3     
  15 N15           13.2126    21.4596    15.1927 N.2     
  16 N16           13.2268    20.2159    14.9761 N.2     
  17 C17           13.2161    19.8190    13.7393 C.2     
  18 N18           13.2284    18.4955    13.3126 N.am    
  19 C19           13.2539    17.4961    14.2166 C.2     
  20 O20           13.2662    17.7511    15.4022 O.2     
  21 N21           21.5926    29.2782    14.9268 N.am    
  22 C22           22.5499    29.5194    14.0094 C.2     
  23 C23           23.9496    29.8593    14.4524 C.3     
  24 O24           22.2850    29.4629    12.8272 O.2     
  25 C25           13.2671    16.0619    13.7541 C.3     
  26 C26           13.2954    15.1481    14.9521 C.ar    
  27 C27           14.6015    24.2654    14.1485 C.3     
  28 C28           14.3466    14.2671    15.1247 C.ar    
  29 C29           24.8197    30.0812    13.2422 C.ar    
  30 C30           25.9331    29.2881    13.0365 C.ar    
  31 C31           14.3725    13.4288    16.2236 C.ar    
  32 C32           13.3475    13.4719    17.1501 C.ar    
  33 C33           12.2968    14.3535    16.9779 C.ar    
  34 C34           12.2731    15.1948    15.8813 C.ar    
  35 C35           26.7312    29.4917    11.9263 C.ar    
  36 C36           26.4157    30.4882    11.0216 C.ar    
  37 C37           25.3018    31.2807    11.2268 C.ar    
  38 C38           24.5013    31.0742    12.3347 C.ar    
  39 C39           12.0105    15.7809    12.9278 C.3     
  40 O40           12.0413    16.5637    11.7327 O.3     
  41 C41           10.9066    16.3749    10.8849 C.3     
  42 C42           23.9211    31.1325    15.3004 C.3     
  43 O43           23.1926    30.8863    16.5049 O.3     
  44 C44           23.1058    32.0179    17.3732 C.3     
  45 S45           14.5769    26.0792    14.1585 S.3     
  46 H46           12.6390    24.0969    13.2763 H       
  47 H47           12.6560    24.0873    15.0562 H       
  48 H48           16.8054    26.1036    13.2473 H       
  49 H49           16.8224    26.0940    15.0272 H       
  50 H50           16.0067    28.4510    13.2676 H       
  51 H51           16.0237    28.4414    15.0474 H       
  52 H52           13.2185    18.2915    12.3643 H       
  53 H53           21.8045    29.3233    15.8723 H       
  54 H54           24.3531    29.0376    15.0442 H       
  55 H55           14.1515    15.8857    13.1418 H       
  56 H56           15.1287    23.9043    15.0316 H       
  57 H57           15.1117    23.9139    13.2517 H       
  58 H58           15.1474    14.2334    14.4008 H       
  59 H59           26.1795    28.5096    13.7433 H       
  60 H60           15.1934    12.7400    16.3580 H       
  61 H61           13.3674    12.8164    18.0082 H       
  62 H62           11.4958    14.3869    17.7016 H       
  63 H63           11.4522    15.8836    15.7469 H       
  64 H64           27.6014    28.8725    11.7660 H       
  65 H65           27.0396    30.6477    10.1547 H       
  66 H66           25.0555    32.0594    10.5202 H       
  67 H67           23.6310    31.6934    12.4950 H       
  68 H68           11.9754    14.7228    12.6683 H       
  69 H69           11.1268    16.0416    13.5103 H       
  70 H70           11.0056    17.0036    10.0000 H       
  71 H71           10.8486    15.3292    10.5830 H       
  72 H72           10.0000    16.6479    11.4250 H       
  73 H73           24.9410    31.4279    15.5466 H       
  74 H74           23.4366    31.9318    14.7397 H       
  75 H75           22.5380    31.7496    18.2641 H       
  76 H76           24.1088    32.3318    17.6624 H       
  77 H77           22.6044    32.8356    16.8554 H       
@<TRIPOS>BOND
   1    1    2 1
   2    3    4 1
   3    5    9 1
   4    5   27 1
   5    5   46 1
   6    5   47 1
   7    6    7 1
   8    6   45 1
   9    6   48 1
  10    6   49 1
  11    7    8 1
  12    7   50 1
  13    7   51 1
  14    8   10 1
  15    8   13 2
  16    9   14 1
  17    9   15 2
  18   10   11 1
  19   11   12 2
  20   11   21 1
  21   12   13 1
  22   14   17 1
  23   15   16 1
  24   16   17 2
  25   17   18 1
  26   18   19 am
  27   18   52 1
  28   19   20 2
  29   19   25 1
  30   21   22 am
  31   21   53 1
  32   22   23 1
  33   22   24 2
  34   23   29 1
  35   23   42 1
  36   23   54 1
  37   25   26 1
  38   25   39 1
  39   25   55 1
  40   26   28 ar
  41   26   34 ar
  42   27   45 1
  43   27   56 1
  44   27   57 1
  45   28   31 ar
  46   28   58 1
  47   29   30 ar
  48   29   38 ar
  49   30   35 ar
  50   30   59 1
  51   31   32 ar
  52   31   60 1
  53   32   33 ar
  54   32   61 1
  55   33   34 ar
  56   33   62 1
  57   34   63 1
  58   35   36 ar
  59   35   64 1
  60   36   37 ar
  61   36   65 1
  62   37   38 ar
  63   37   66 1
  64   38   67 1
  65   39   40 1
  66   39   68 1
  67   39   69 1
  68   40   41 1
  69   41   70 1
  70   41   71 1
  71   41   72 1
  72   42   43 1
  73   42   73 1
  74   42   74 1
  75   43   44 1
  76   44   75 1
  77   44   76 1
  78   44   77 1

#	End of record

