#	Name: ASD07300939
#	Creating user name:	WinNT
#	Creation time:	15. 06. 2019 21:10

#	Modifying user name:	WinNT
#	Modification time:	15. 06. 2019 21:10

#	Program:	/corina/corina34_cracker 3.40 0067  02.08.2006

@<TRIPOS>MOLECULE
ASD07300939
  49   53    0    0    0
SMALL
NO_CHARGES


@<TRIPOS>ATOM
   1 N1            -0.1705     1.4460     0.1086 N.am    
   2 C2            -0.1190     0.0957    -0.0143 C.2     
   3 N3             0.9937    -0.5611    -0.1644 N.2     
   4 C4             2.1829     0.0599    -0.2091 C.2     
   5 C5             2.2299     1.4579    -0.0907 C.2     
   6 C6             0.9678     2.1780     0.0778 C.2     
   7 N7             3.4665    -0.3605    -0.3527 N.pl3   
   8 N8             4.3031     0.7623    -0.3241 N.2     
   9 C9             3.5824     1.8387    -0.1700 C.2     
  10 O10            0.9420     3.3913     0.1857 O.2     
  11 C11            3.9014    -1.7506    -0.5101 C.3     
  12 C12            4.5271    -1.9357    -1.8939 C.3     
  13 C13            4.9813    -3.3874    -2.0583 C.3     
  14 C14            6.0156    -3.7232    -0.9819 C.3     
  15 C15            5.3898    -3.5381     0.4020 C.3     
  16 C16            4.9356    -2.0864     0.5663 C.3     
  17 C17           -1.4109    -0.6792     0.0255 C.3     
  18 C18           -1.8730    -1.0338     1.4487 C.3     
  19 C19           -1.0431    -2.3213     1.3127 C.3     
  20 C20           -1.2314    -2.1886    -0.2077 C.3     
  21 F21            6.4309    -5.0506    -1.1322 F       
  22 F22            7.1180    -2.8720    -1.1129 F       
  23 C23           -1.3555    -0.0906     2.5040 C.2     
  24 C24           -2.0892     0.7656     3.2213 C.2     
  25 N25           -1.4009     1.4849     4.0848 N.2     
  26 C26           -0.1276     1.2831     4.1358 C.2     
  27 S27            0.3227     0.0726     3.0155 S.3     
  28 C28            0.8240     2.0050     5.0547 C.3     
  29 H29           -1.0269     1.8890     0.2148 H       
  30 H30            3.9591     2.8492    -0.1129 H       
  31 H31            3.0424    -2.4138    -0.4080 H       
  32 H32            3.7903    -1.6965    -2.6608 H       
  33 H33            5.3861    -1.2725    -1.9960 H       
  34 H34            4.1223    -4.0506    -1.9563 H       
  35 H35            5.4271    -3.5193    -3.0442 H       
  36 H36            4.5309    -4.2013     0.5040 H       
  37 H37            6.1267    -3.7773     1.1688 H       
  38 H38            5.7946    -1.4232     0.4643 H       
  39 H39            4.4899    -1.9545     1.5522 H       
  40 H40           -2.1923    -0.2311    -0.5883 H       
  41 H41           -2.9454    -1.2119     1.5280 H       
  42 H42           -0.0081    -2.2098     1.6359 H       
  43 H43           -1.5279    -3.2002     1.7377 H       
  44 H44           -2.1284    -2.6824    -0.5813 H       
  45 H45           -0.3391    -2.4386    -0.7817 H       
  46 H46           -3.1585     0.8604     3.1029 H       
  47 H47            0.9795     1.4117     5.9558 H       
  48 H48            1.7776     2.1521     4.5475 H       
  49 H49            0.4033     2.9734     5.3254 H       
@<TRIPOS>BOND
   1    1    2 1
   2    1    6 am
   3    1   29 1
   4    2    3 2
   5    2   17 1
   6    3    4 1
   7    4    5 2
   8    4    7 1
   9    5    6 1
  10    5    9 1
  11    6   10 2
  12    7    8 1
  13    7   11 1
  14    8    9 2
  15    9   30 1
  16   11   12 1
  17   11   16 1
  18   11   31 1
  19   12   13 1
  20   12   32 1
  21   12   33 1
  22   13   14 1
  23   13   34 1
  24   13   35 1
  25   14   15 1
  26   14   21 1
  27   14   22 1
  28   15   16 1
  29   15   36 1
  30   15   37 1
  31   16   38 1
  32   16   39 1
  33   17   18 1
  34   17   20 1
  35   17   40 1
  36   18   19 1
  37   18   23 1
  38   18   41 1
  39   19   20 1
  40   19   42 1
  41   19   43 1
  42   20   44 1
  43   20   45 1
  44   23   24 2
  45   23   27 1
  46   24   25 1
  47   24   46 1
  48   25   26 2
  49   26   27 1
  50   26   28 1
  51   28   47 1
  52   28   48 1
  53   28   49 1

#	End of record

