#	Name: ASD02198211
#	Creating user name:	WinNT
#	Creation time:	15. 06. 2019 20:19

#	Modifying user name:	WinNT
#	Modification time:	15. 06. 2019 20:19

#	Program:	/corina/corina34_cracker 3.40 0067  02.08.2006

@<TRIPOS>MOLECULE
ASD02198211
  35   37    0    0    0
SMALL
NO_CHARGES


@<TRIPOS>ATOM
   1 C1            -0.0166     1.3753     0.0096 C.2     
   2 C2             0.0021    -0.0041     0.0020 C.2     
   3 C3            -1.1878    -0.8008     0.0087 C.1     
   4 S4             1.5675     2.0054    -0.0021 S.3     
   5 C5             2.2772     0.3990    -0.0175 C.2     
   6 C6             1.2824    -0.5520    -0.0131 C.2     
   7 C7             3.6579     0.1250    -0.0331 C.2     
   8 C8             4.6307     1.2350    -0.0370 C.2     
   9 O9             4.0505    -1.0301    -0.0434 O.2     
  10 N10            1.5294    -1.9154    -0.0228 N.pl3   
  11 N11           -1.1593     2.1393     0.0194 N.pl3   
  12 N12           -2.1317    -1.4328     0.0139 N.1     
  13 C13           -1.0630     3.6011     0.0268 C.3     
  14 C14           -2.3387     4.2164    -0.5745 C.3     
  15 C15            5.9953     1.1326    -0.0514 C.2     
  16 C16            6.4352     2.4750    -0.0486 C.2     
  17 O17            4.3544     2.5525    -0.0328 O.3     
  18 N18            5.3645     3.2167    -0.0336 N.2     
  19 Br19           8.2276     3.0774    -0.0626 Br      
  20 C20           -2.9730     5.0847     0.5317 C.3     
  21 C21           -1.7894     5.4291     1.4696 C.3     
  22 C22           -0.9665     4.1169     1.4775 C.3     
  23 H23            2.4424    -2.2428    -0.0333 H       
  24 H24            0.7893    -2.5424    -0.0191 H       
  25 H25           -2.0294     1.7105     0.0213 H       
  26 H26           -0.1902     3.9204    -0.5426 H       
  27 H27           -2.0849     4.8351    -1.4353 H       
  28 H28           -3.0295     3.4274    -0.8720 H       
  29 H29            6.5958     0.2350    -0.0622 H       
  30 H30           -3.3994     5.9931     0.1062 H       
  31 H31           -3.7345     4.5204     1.0699 H       
  32 H32           -1.2010     6.2516     1.0630 H       
  33 H33           -2.1470     5.6669     2.4714 H       
  34 H34           -1.4041     3.3964     2.1685 H       
  35 H35            0.0713     4.3191     1.7422 H       
@<TRIPOS>BOND
   1    1    2 2
   2    1    4 1
   3    1   11 1
   4    2    3 1
   5    2    6 1
   6    3   12 3
   7    4    5 1
   8    5    6 2
   9    5    7 1
  10    6   10 1
  11    7    8 1
  12    7    9 2
  13    8   15 2
  14    8   17 1
  15   10   23 1
  16   10   24 1
  17   11   13 1
  18   11   25 1
  19   13   14 1
  20   13   22 1
  21   13   26 1
  22   14   20 1
  23   14   27 1
  24   14   28 1
  25   15   16 1
  26   15   29 1
  27   16   19 1
  28   16   18 2
  29   17   18 1
  30   20   21 1
  31   20   30 1
  32   20   31 1
  33   21   22 1
  34   21   32 1
  35   21   33 1
  36   22   34 1
  37   22   35 1

#	End of record

