#	Name: ASD04230145
#	Creating user name:	WinNT
#	Creation time:	15. 06. 2019 20:48

#	Modifying user name:	WinNT
#	Modification time:	15. 06. 2019 20:48

#	Program:	/corina/corina34_cracker 3.40 0067  02.08.2006

@<TRIPOS>MOLECULE
ASD04230145
  50   54    0    0    0
SMALL
NO_CHARGES


@<TRIPOS>ATOM
   1 C1             1.5361     4.6855     1.7216 C.ar    
   2 C2             2.5442     5.3833     2.3710 C.ar    
   3 C3             3.8008     4.8582     2.4692 C.ar    
   4 C4             4.0827     3.6075     1.9009 C.ar    
   5 C5             3.0565     2.8814     1.2697 C.ar    
   6 C6             1.7832     3.4391     1.1740 C.ar    
   7 C7             5.3936     3.0672     1.9622 C.2     
   8 C8             5.6630     1.9280     1.2153 C.2     
   9 C9             4.5672     1.3876     0.3902 C.2     
  10 O10            3.2980     1.6420     0.7794 O.3     
  11 C11            6.9880     1.2867     1.2457 C.2     
  12 N12            7.2189     0.1817     0.5095 N.am    
  13 O13            7.8742     1.7543     1.9353 O.2     
  14 C14            8.5060    -0.3624     0.4496 C.ar    
  15 C15            8.6754    -1.7390     0.3669 C.ar    
  16 C16            9.9458    -2.2802     0.3075 C.ar    
  17 C17           11.0532    -1.4564     0.3296 C.ar    
  18 C18           10.8927    -0.0741     0.4119 C.ar    
  19 C19            9.6136     0.4724     0.4670 C.ar    
  20 C20           12.0822     0.8128     0.4357 C.ar    
  21 O21            4.7980     0.7336    -0.6097 O.2     
  22 C22           13.3572     0.2659     0.3702 C.ar    
  23 C23           11.9187     2.1989     0.5184 C.ar    
  24 C24           13.0128     3.0328     0.5408 C.ar    
  25 C25           14.2965     2.5004     0.4817 C.ar    
  26 C26           14.4652     1.1083     0.3933 C.ar    
  27 O27           15.3800     3.3036     0.5031 O.3     
  28 C28           16.6278     2.8264     0.4483 C.2     
  29 C29           16.9040     1.5122     0.3672 C.2     
  30 C30           15.8396     0.5730     0.3321 C.2     
  31 O31           16.0519    -0.6253     0.2592 O.2     
  32 O32            0.7868     2.7606     0.5449 O.3     
  33 C33           -0.4925     3.3944     0.4852 C.3     
  34 H34            0.5488     5.1169     1.6468 H       
  35 H35            2.3332     6.3507     2.8024 H       
  36 H36            4.5767     5.4056     2.9836 H       
  37 H37            6.1579     3.5279     2.5704 H       
  38 H38            6.4924    -0.2363     0.0212 H       
  39 H39            7.8122    -2.3878     0.3494 H       
  40 H40           10.0725    -3.3509     0.2441 H       
  41 H41           12.0444    -1.8829     0.2834 H       
  42 H42            9.4841     1.5427     0.5308 H       
  43 H43           13.4880    -0.8040     0.3021 H       
  44 H44           10.9247     2.6188     0.5646 H       
  45 H45           12.8747     4.1021     0.6041 H       
  46 H46           17.4498     3.5265     0.4697 H       
  47 H47           17.9287     1.1740     0.3245 H       
  48 H48           -0.4038     4.3427    -0.0449 H       
  49 H49           -1.1942     2.7478    -0.0417 H       
  50 H50           -0.8554     3.5763     1.4968 H       
@<TRIPOS>BOND
   1    1    2 ar
   2    1    6 ar
   3    1   34 1
   4    2    3 ar
   5    2   35 1
   6    3    4 ar
   7    3   36 1
   8    4    5 ar
   9    4    7 1
  10    5    6 ar
  11    5   10 1
  12    6   32 1
  13    7    8 2
  14    7   37 1
  15    8    9 1
  16    8   11 1
  17    9   10 1
  18    9   21 2
  19   11   12 am
  20   11   13 2
  21   12   14 1
  22   12   38 1
  23   14   15 ar
  24   14   19 ar
  25   15   16 ar
  26   15   39 1
  27   16   17 ar
  28   16   40 1
  29   17   18 ar
  30   17   41 1
  31   18   19 ar
  32   18   20 1
  33   19   42 1
  34   20   23 ar
  35   20   22 ar
  36   22   26 ar
  37   22   43 1
  38   23   24 ar
  39   23   44 1
  40   24   25 ar
  41   24   45 1
  42   25   26 ar
  43   25   27 1
  44   26   30 1
  45   27   28 1
  46   28   29 2
  47   28   46 1
  48   29   30 1
  49   29   47 1
  50   30   31 2
  51   32   33 1
  52   33   48 1
  53   33   49 1
  54   33   50 1

#	End of record

