#	Name: ASD05730036
#	Creating user name:	WinNT
#	Creation time:	15. 06. 2019 21:02

#	Modifying user name:	WinNT
#	Modification time:	15. 06. 2019 21:02

#	Program:	/corina/corina34_cracker 3.40 0067  02.08.2006

@<TRIPOS>MOLECULE
ASD05730036
  77   81    0    0    0
SMALL
NO_CHARGES


@<TRIPOS>ATOM
   1 C1            -1.0462     1.9068    -0.5165 C.3     
   2 C2            -0.3722     0.5871    -0.1342 C.3     
   3 N3            -1.3868    -0.4625    -0.0110 N.pl3   
   4 C4            -2.0829    -0.6250     1.1921 C.ar    
   5 C5            -3.0448    -1.6200     1.3089 C.ar    
   6 C6            -3.7316    -1.7802     2.4959 C.ar    
   7 C7            -3.4610    -0.9461     3.5728 C.ar    
   8 C8            -2.4996     0.0491     3.4558 C.ar    
   9 C9            -1.8080     0.2051     2.2710 C.ar    
  10 N10           -4.1581    -1.1084     4.7767 N.pl3   
  11 C11           -3.5212    -0.8765     5.9803 C.ar    
  12 N12           -4.2305    -0.9270     7.0975 N.ar    
  13 C13           -3.6532    -0.7096     8.2737 C.ar    
  14 C14           -2.2710    -0.4241     8.3081 C.ar    
  15 C15           -1.5640    -0.3819     7.0970 C.ar    
  16 N16           -2.2184    -0.6161     5.9750 N.ar    
  17 N17           -4.3805    -0.7595     9.4361 N.am    
  18 C18           -3.7899    -0.5377    10.6262 C.2     
  19 C19           -2.3580    -0.2390    10.6971 C.2     
  20 C20           -1.6239    -0.1879     9.5425 C.2     
  21 C21           -5.8140    -1.0566     9.3823 C.3     
  22 C22           -6.0256    -2.5686     9.4828 C.3     
  23 O23           -4.4503    -0.5855    11.6486 O.2     
  24 C24           -1.7093     0.0048    12.0067 C.ar    
  25 C25           -0.8955    -0.9750    12.5793 C.ar    
  26 C26           -0.2932    -0.7402    13.8011 C.ar    
  27 C27           -0.4958     0.4615    14.4549 C.ar    
  28 C28           -1.3013     1.4353    13.8915 C.ar    
  29 C29           -1.9041     1.2157    12.6699 C.ar    
  30 S30            0.2747     0.7535    16.0123 S.o     
  31 O31            0.5010    -0.5589    16.5081 O.2     
  32 C32            1.8588     1.5063    15.5491 C.3     
  33 N33           -0.0273     2.9544    -0.6607 N.3     
  34 C34            0.9231     2.6270    -1.7312 C.3     
  35 C35            1.6558     1.3288    -1.3852 C.3     
  36 C36            0.6343     0.2000    -1.2212 C.3     
  37 F37           -0.6977    -2.1492    11.9410 F       
  38 N38           -7.4631    -2.8665     9.4288 N.3     
  39 C39           -8.0232    -2.5218     8.1152 C.3     
  40 C40           -7.7217    -4.2745     9.7584 C.3     
  41 C41            2.6608     1.8251    16.8125 C.3     
  42 F42            2.8962     0.6448    17.5256 F       
  43 F43            3.8824     2.4057    16.4553 F       
  44 F44            1.9369     2.7164    17.6118 F       
  45 H45           -1.5766     1.7836    -1.4607 H       
  46 H46           -1.7532     2.1925     0.2624 H       
  47 H47            0.1463     0.7055     0.8172 H       
  48 H48           -1.5761    -1.0449    -0.7633 H       
  49 H49           -3.2557    -2.2682     0.4712 H       
  50 H50           -4.4795    -2.5540     2.5868 H       
  51 H51           -2.2897     0.6982     4.2931 H       
  52 H52           -1.0600     0.9788     2.1802 H       
  53 H53           -5.0882    -1.3837     4.7654 H       
  54 H54           -0.5058    -0.1663     7.0835 H       
  55 H55           -0.5668     0.0309     9.5742 H       
  56 H56           -6.3188    -0.5631    10.2127 H       
  57 H57           -6.2251    -0.6941     8.4401 H       
  58 H58           -5.5208    -3.0621     8.6524 H       
  59 H59           -5.6146    -2.9311    10.4250 H       
  60 H60            0.3364    -1.4966    14.2461 H       
  61 H61           -1.4553     2.3715    14.4075 H       
  62 H62           -2.5324     1.9772    12.2321 H       
  63 H63            2.4228     0.8119    14.9264 H       
  64 H64            1.6753     2.4260    14.9935 H       
  65 H65           -0.4543     3.8548    -0.8191 H       
  66 H66            0.3835     2.5004    -2.6697 H       
  67 H67            1.6464     3.4358    -1.8346 H       
  68 H68            2.3499     1.0778    -2.1873 H       
  69 H69            2.2069     1.4590    -0.4538 H       
  70 H70            1.1479    -0.7170    -0.9322 H       
  71 H71            0.1101     0.0433    -2.1639 H       
  72 H72           -7.5172    -3.0994     7.3416 H       
  73 H73           -9.0884    -2.7524     8.1026 H       
  74 H74           -7.8794    -1.4579     7.9268 H       
  75 H75           -7.3587    -4.4848    10.7644 H       
  76 H76           -8.7933    -4.4679     9.7109 H       
  77 H77           -7.2048    -4.9156     9.0443 H       
@<TRIPOS>BOND
   1    1    2 1
   2    1   33 1
   3    1   45 1
   4    1   46 1
   5    2    3 1
   6    2   36 1
   7    2   47 1
   8    3    4 1
   9    3   48 1
  10    4    5 ar
  11    4    9 ar
  12    5    6 ar
  13    5   49 1
  14    6    7 ar
  15    6   50 1
  16    7    8 ar
  17    7   10 1
  18    8    9 ar
  19    8   51 1
  20    9   52 1
  21   10   11 1
  22   10   53 1
  23   11   12 ar
  24   11   16 ar
  25   12   13 ar
  26   13   14 ar
  27   13   17 1
  28   14   15 ar
  29   14   20 1
  30   15   16 ar
  31   15   54 1
  32   17   18 am
  33   17   21 1
  34   18   19 1
  35   18   23 2
  36   19   20 2
  37   19   24 1
  38   20   55 1
  39   21   22 1
  40   21   56 1
  41   21   57 1
  42   22   38 1
  43   22   58 1
  44   22   59 1
  45   24   25 ar
  46   24   29 ar
  47   25   26 ar
  48   25   37 1
  49   26   27 ar
  50   26   60 1
  51   27   28 ar
  52   27   30 1
  53   28   29 ar
  54   28   61 1
  55   29   62 1
  56   30   31 2
  57   30   32 1
  58   32   41 1
  59   32   63 1
  60   32   64 1
  61   33   34 1
  62   33   65 1
  63   34   35 1
  64   34   66 1
  65   34   67 1
  66   35   36 1
  67   35   68 1
  68   35   69 1
  69   36   70 1
  70   36   71 1
  71   38   39 1
  72   38   40 1
  73   39   72 1
  74   39   73 1
  75   39   74 1
  76   40   75 1
  77   40   76 1
  78   40   77 1
  79   41   42 1
  80   41   43 1
  81   41   44 1

#	End of record

