#	Name: ASD01881238
#	Creating user name:	WinNT
#	Creation time:	15. 06. 2019 19:42

#	Modifying user name:	WinNT
#	Modification time:	15. 06. 2019 19:42

#	Program:	/corina/corina34_cracker 3.40 0067  02.08.2006

@<TRIPOS>MOLECULE
ASD01881238
  40   42    0    0    0
SMALL
NO_CHARGES


@<TRIPOS>ATOM
   1 N1            -0.0158     1.3112     0.0093 N.ar    
   2 C2             0.0021    -0.0041     0.0020 C.ar    
   3 N3             1.1299    -0.6874    -0.0124 N.ar    
   4 C4             2.3038    -0.0681    -0.0203 C.ar    
   5 C5             2.3337     1.3261    -0.0131 C.ar    
   6 C6             1.1200     2.0108     0.0022 C.ar    
   7 C7             3.6431     2.0721    -0.0216 C.3     
   8 O8             4.0441     2.3151    -1.3715 O.3     
   9 C9             5.2114     2.9820    -1.5569 C.ar    
  10 C10            5.6605     3.2518    -2.8464 C.ar    
  11 C11            6.8407     3.9267    -3.0337 C.ar    
  12 C12            7.5982     4.3469    -1.9349 C.ar    
  13 C13            7.1428     4.0735    -0.6407 C.ar    
  14 C14            5.9535     3.3996    -0.4594 C.ar    
  15 C15            7.5934     4.3695    -4.2636 C.3     
  16 N16            8.7995     5.0523    -3.7818 N.am    
  17 C17            8.7978     5.0367    -2.4379 C.2     
  18 O18            9.6639     5.5236    -1.7368 O.2     
  19 Cl19           8.0700     4.5868     0.7342 Cl      
  20 C20            9.4805     7.1145    -4.9066 C.3     
  21 C21            9.8349     5.6527    -4.6266 C.3     
  22 C22            1.0926     3.4426     0.0096 C.1     
  23 N23            1.0708     4.5783     0.0156 N.1     
  24 O24            3.4567    -0.7803    -0.0347 O.3     
  25 C25            3.3394    -2.2045    -0.0408 C.3     
  26 H26           -0.9352    -0.5405     0.0085 H       
  27 H27            3.5232     3.0224     0.4985 H       
  28 H28            4.4042     1.4759     0.4818 H       
  29 H29            5.0808     2.9300    -3.6989 H       
  30 H30            5.6016     3.1888     0.5396 H       
  31 H31            7.8683     3.5040    -4.8665 H       
  32 H32            6.9827     5.0564    -4.8496 H       
  33 H33            9.4183     7.6600    -3.9650 H       
  34 H34           10.2508     7.5612    -5.5352 H       
  35 H35            8.5197     7.1637    -5.4191 H       
  36 H36           10.7957     5.6035    -4.1142 H       
  37 H37            9.8971     5.1071    -5.5682 H       
  38 H38            4.3337    -2.6509    -0.0523 H       
  39 H39            2.8058    -2.5289     0.8526 H       
  40 H40            2.7891    -2.5199    -0.9272 H       
@<TRIPOS>BOND
   1    1    2 ar
   2    1    6 ar
   3    2    3 ar
   4    2   26 1
   5    3    4 ar
   6    4    5 ar
   7    4   24 1
   8    5    6 ar
   9    5    7 1
  10    6   22 1
  11    7    8 1
  12    7   27 1
  13    7   28 1
  14    8    9 1
  15    9   10 ar
  16    9   14 ar
  17   10   11 ar
  18   10   29 1
  19   11   12 ar
  20   11   15 1
  21   12   13 ar
  22   12   17 1
  23   13   14 ar
  24   13   19 1
  25   14   30 1
  26   15   16 1
  27   15   31 1
  28   15   32 1
  29   16   17 am
  30   16   21 1
  31   17   18 2
  32   20   21 1
  33   20   33 1
  34   20   34 1
  35   20   35 1
  36   21   36 1
  37   21   37 1
  38   22   23 3
  39   24   25 1
  40   25   38 1
  41   25   39 1
  42   25   40 1

#	End of record

