#	Name: ASD00842315
#	Creating user name:	WinNT
#	Creation time:	15. 06. 2019 18:44

#	Modifying user name:	WinNT
#	Modification time:	15. 06. 2019 18:44

#	Program:	/corina/corina34_cracker 3.40 0067  02.08.2006

@<TRIPOS>MOLECULE
ASD00842315
  88   93    0    0    0
SMALL
NO_CHARGES


@<TRIPOS>ATOM
   1 F1             6.0916    -1.5946    -1.9725 F       
   2 C2             0.9933     1.5579    -0.2891 C.ar    
   3 C3             1.3044     0.2353    -0.5684 C.ar    
   4 C4             1.2434    -0.7170     0.4389 C.ar    
   5 C5             0.8731    -0.3460     1.7168 C.ar    
   6 C6             0.5629     0.9731     1.9926 C.ar    
   7 C7             0.6234     1.9239     0.9908 C.ar    
   8 C8             1.5803    -2.1549     0.1388 C.3     
   9 C9             1.3198    -3.0245     1.3503 C.2     
  10 C10            0.7742    -2.6534    -1.0622 C.3     
  11 C11           -0.6951    -2.4388    -0.8051 C.2     
  12 N12           -1.6072    -2.8983    -1.6845 N.am    
  13 O13           -1.0567    -1.8527     0.1932 O.2     
  14 C14           -3.0377    -2.6033    -1.5118 C.3     
  15 C15           -3.5798    -2.0347    -2.8275 C.3     
  16 N16           -3.2644    -2.9601    -3.9239 N.3     
  17 C17           -1.8130    -3.0960    -4.1056 C.3     
  18 C18           -1.1979    -3.7029    -2.8456 C.3     
  19 N19           -3.9074    -2.5425    -5.1594 N.3     
  20 C20           -3.5918    -3.4682    -6.2562 C.3     
  21 C21           -4.3491    -3.0400    -7.5155 C.3     
  22 N22           -3.9717    -1.6638    -7.8666 N.3     
  23 C23           -4.2872    -0.7381    -6.7697 C.3     
  24 C24           -3.5300    -1.1663    -5.5105 C.3     
  25 H25           -2.9956    -1.6090    -8.1164 H       
  26 O26            0.2513    -3.1948     1.8984 O.2     
  27 N27            2.4944    -3.5728     1.7039 N.am    
  28 C28            3.0625    -2.3098    -0.1134 C.ar    
  29 C29            3.5374    -3.1738     0.8654 C.ar    
  30 C30            3.9104    -1.7813    -1.0608 C.ar    
  31 C31            5.2562    -2.1105    -1.0446 C.ar    
  32 C32            5.7423    -2.9719    -0.0727 C.ar    
  33 C33            4.8911    -3.5020     0.8778 C.ar    
  34 F34            7.0542    -3.2942    -0.0550 F       
  35 C35            2.4349    -6.2391     2.3831 C.ar    
  36 C36            1.1904    -6.6184     1.9008 C.ar    
  37 C37            3.4810    -7.1422     2.3851 C.ar    
  38 C38            3.2908    -8.4242     1.9066 C.ar    
  39 C39            2.0478    -8.8084     1.4231 C.ar    
  40 C40            0.9968    -7.9046     1.4205 C.ar    
  41 O41            1.8611   -10.0698     0.9531 O.3     
  42 O42            0.1620    -5.7300     1.8995 O.3     
  43 C43           -1.0911    -6.1890     1.3884 C.3     
  44 C44            2.9880   -10.9479     0.9865 C.3     
  45 O45            1.6681    -0.1273    -1.8267 O.3     
  46 C46            2.1396     0.3191    -4.1545 C.3     
  47 C47            1.6004     0.8806    -2.8374 C.3     
  48 S48            2.6836    -4.6026     2.9869 S.o2    
  49 O49            4.0495    -4.5195     3.3700 O.2     
  50 O50            1.6090    -4.3358     3.8774 O.2     
  51 H51            1.0444     2.3017    -1.0705 H       
  52 H52            0.8254    -1.0868     2.5012 H       
  53 H53            0.2729     1.2611     2.9923 H       
  54 H54            0.3807     2.9534     1.2087 H       
  55 H55            1.0715    -2.1013    -1.9538 H       
  56 H56            0.9655    -3.7160    -1.2123 H       
  57 H57           -3.5728    -3.5192    -1.2606 H       
  58 H58           -3.1669    -1.8704    -0.7154 H       
  59 H59           -4.6605    -1.9134    -2.7534 H       
  60 H60           -3.1174    -1.0673    -3.0236 H       
  61 H61           -1.6124    -3.7443    -4.9585 H       
  62 H62           -1.3753    -2.1138    -4.2839 H       
  63 H63           -0.1112    -3.6996    -2.9306 H       
  64 H64           -1.5551    -4.7250    -2.7196 H       
  65 H65           -2.5198    -3.4481    -6.4521 H       
  66 H66           -3.8919    -4.4783    -5.9773 H       
  67 H67           -4.0941    -3.7081    -8.3381 H       
  68 H68           -5.4218    -3.0863    -7.3281 H       
  69 H69           -3.9871     0.2720    -7.0486 H       
  70 H70           -5.3593    -0.7582    -6.5739 H       
  71 H71           -3.7850    -0.4982    -4.6879 H       
  72 H72           -2.4572    -1.1200    -5.6979 H       
  73 H73            3.5269    -1.1112    -1.8159 H       
  74 H74            5.2762    -4.1720     1.6323 H       
  75 H75            4.4489    -6.8451     2.7609 H       
  76 H76            4.1100    -9.1279     1.9086 H       
  77 H77            0.0288    -8.2018     1.0450 H       
  78 H78           -1.4367    -7.0362     1.9806 H       
  79 H79           -1.8234    -5.3835     1.4446 H       
  80 H80           -0.9690    -6.4972     0.3500 H       
  81 H81            2.7032   -11.9199     0.5838 H       
  82 H82            3.7941   -10.5275     0.3851 H       
  83 H83            3.3262   -11.0660     2.0159 H       
  84 H84            1.4880    -0.4829    -4.5014 H       
  85 H85            2.1697     1.1117    -4.9022 H       
  86 H86            3.1451    -0.0715    -3.9984 H       
  87 H87            0.5644     1.1913    -2.9719 H       
  88 H88            2.2008     1.7388    -2.5354 H       
@<TRIPOS>BOND
   1    1   31 1
   2    2    3 ar
   3    2    7 ar
   4    2   51 1
   5    3    4 ar
   6    3   45 1
   7    4    5 ar
   8    4    8 1
   9    5    6 ar
  10    5   52 1
  11    6    7 ar
  12    6   53 1
  13    7   54 1
  14    8    9 1
  15    8   10 1
  16    8   28 1
  17    9   26 2
  18    9   27 am
  19   10   11 1
  20   10   55 1
  21   10   56 1
  22   11   12 am
  23   11   13 2
  24   12   14 1
  25   12   18 1
  26   14   15 1
  27   14   57 1
  28   14   58 1
  29   15   16 1
  30   15   59 1
  31   15   60 1
  32   16   17 1
  33   16   19 1
  34   17   18 1
  35   17   61 1
  36   17   62 1
  37   18   63 1
  38   18   64 1
  39   19   20 1
  40   19   24 1
  41   20   21 1
  42   20   65 1
  43   20   66 1
  44   21   22 1
  45   21   67 1
  46   21   68 1
  47   22   23 1
  48   22   25 1
  49   23   24 1
  50   23   69 1
  51   23   70 1
  52   24   71 1
  53   24   72 1
  54   27   48 am
  55   27   29 1
  56   28   29 ar
  57   28   30 ar
  58   29   33 ar
  59   30   31 ar
  60   30   73 1
  61   31   32 ar
  62   32   33 ar
  63   32   34 1
  64   33   74 1
  65   35   36 ar
  66   35   37 ar
  67   35   48 1
  68   36   42 1
  69   36   40 ar
  70   37   38 ar
  71   37   75 1
  72   38   39 ar
  73   38   76 1
  74   39   40 ar
  75   39   41 1
  76   40   77 1
  77   41   44 1
  78   42   43 1
  79   43   78 1
  80   43   79 1
  81   43   80 1
  82   44   81 1
  83   44   82 1
  84   44   83 1
  85   45   47 1
  86   46   47 1
  87   46   84 1
  88   46   85 1
  89   46   86 1
  90   47   87 1
  91   47   88 1
  92   48   49 2
  93   48   50 2

#	End of record

