#	Name: ASD00170807
#	Creating user name:	WinNT
#	Creation time:	15. 06. 2019 18:32

#	Modifying user name:	WinNT
#	Modification time:	15. 06. 2019 18:32

#	Program:	/corina/corina34_cracker 3.40 0067  02.08.2006

@<TRIPOS>MOLECULE
ASD00170807
  48   52    0    0    0
SMALL
NO_CHARGES


@<TRIPOS>ATOM
   1 C1             0.6246     0.6322     0.7119 C.2     
   2 N2            -0.0339     0.0454    -0.3038 N.am    
   3 C3             0.5261     0.3553    -1.4870 C.2     
   4 C4             1.6820     1.2432    -1.2428 C.ar    
   5 C5             2.6138     1.8656    -2.0579 C.ar    
   6 C6             3.6014     2.6571    -1.4927 C.ar    
   7 C7             3.6631     2.8293    -0.1225 C.ar    
   8 C8             2.7378     2.2131     0.7056 C.ar    
   9 C9             1.7446     1.4192     0.1548 C.ar    
  10 O10            0.3428     0.5356     1.8892 O.2     
  11 O11            0.1459    -0.0305    -2.5739 O.2     
  12 C12           -1.1442    -0.7717    -0.1512 C.2     
  13 C13           -1.1008    -2.1418    -0.0348 C.2     
  14 C14           -2.3590    -2.7329     0.1089 C.2     
  15 C15           -3.3717    -1.8546     0.1065 C.2     
  16 S16           -2.7563    -0.2195    -0.0738 S.3     
  17 C17           -4.7999    -2.2105     0.2417 C.ar    
  18 C18           -5.5922    -1.5776     1.2009 C.ar    
  19 C19           -6.9246    -1.9141     1.3216 C.ar    
  20 C20           -7.4759    -2.8765     0.4944 C.ar    
  21 C21           -6.6960    -3.5079    -0.4582 C.ar    
  22 C22           -5.3636    -3.1767    -0.5932 C.ar    
  23 C23            0.1477    -2.9096    -0.0598 C.2     
  24 C24            0.6068    -3.5334    -1.3190 C.ar    
  25 C25            1.7448    -4.3425    -1.3262 C.ar    
  26 C26            2.1682    -4.9215    -2.5038 C.ar    
  27 C27            1.4672    -4.7016    -3.6782 C.ar    
  28 C28            0.3378    -3.8997    -3.6774 C.ar    
  29 C29           -0.0992    -3.3206    -2.5047 C.ar    
  30 O30            0.8064    -3.0336     0.9564 O.2     
  31 Cl31           2.0067    -5.4337    -5.1569 Cl      
  32 C32           -2.5588    -4.2197     0.2524 C.3     
  33 Br33          -2.5025    -4.7077     2.1561 Br      
  34 H34            2.5711     1.7342    -3.1290 H       
  35 H35            4.3281     3.1426    -2.1273 H       
  36 H36            4.4378     3.4479     0.3059 H       
  37 H37            2.7911     2.3508     1.7754 H       
  38 H38           -5.1630    -0.8264     1.8475 H       
  39 H39           -7.5387    -1.4254     2.0636 H       
  40 H40           -8.5196    -3.1362     0.5929 H       
  41 H41           -7.1323    -4.2588    -1.1003 H       
  42 H42           -4.7571    -3.6669    -1.3404 H       
  43 H43            2.2926    -4.5140    -0.4113 H       
  44 H44            3.0483    -5.5475    -2.5106 H       
  45 H45           -0.2044    -3.7316    -4.5962 H       
  46 H46           -0.9827    -2.6994    -2.5044 H       
  47 H47           -3.5261    -4.4983    -0.1656 H       
  48 H48           -1.7673    -4.7458    -0.2811 H       
@<TRIPOS>BOND
   1    1    2 am
   2    1    9 1
   3    1   10 2
   4    2    3 am
   5    2   12 1
   6    3    4 1
   7    3   11 2
   8    4    5 ar
   9    4    9 ar
  10    5    6 ar
  11    5   34 1
  12    6    7 ar
  13    6   35 1
  14    7    8 ar
  15    7   36 1
  16    8    9 ar
  17    8   37 1
  18   12   13 2
  19   12   16 1
  20   13   14 1
  21   13   23 1
  22   14   15 2
  23   14   32 1
  24   15   16 1
  25   15   17 1
  26   17   18 ar
  27   17   22 ar
  28   18   19 ar
  29   18   38 1
  30   19   20 ar
  31   19   39 1
  32   20   21 ar
  33   20   40 1
  34   21   22 ar
  35   21   41 1
  36   22   42 1
  37   23   24 1
  38   23   30 2
  39   24   25 ar
  40   24   29 ar
  41   25   26 ar
  42   25   43 1
  43   26   27 ar
  44   26   44 1
  45   27   28 ar
  46   27   31 1
  47   28   29 ar
  48   28   45 1
  49   29   46 1
  50   32   33 1
  51   32   47 1
  52   32   48 1

#	End of record

