#	Name: ASD01150882
#	Creating user name:	WinNT
#	Creation time:	15. 06. 2019 19:05

#	Modifying user name:	WinNT
#	Modification time:	15. 06. 2019 19:05

#	Program:	/corina/corina34_cracker 3.40 0067  02.08.2006

@<TRIPOS>MOLECULE
ASD01150882
  60   61    0    0    0
SMALL
NO_CHARGES


@<TRIPOS>ATOM
   1 C1            -0.0019     1.5007     0.0377 C.3     
   2 C2             0.1591     0.0041     0.1105 C.2     
   3 N3             0.7597    -0.5579     1.1782 N.am    
   4 O4            -0.2517    -0.6946    -0.7916 O.2     
   5 C5             0.9083    -1.9392     1.2454 C.2     
   6 N6             0.5045    -2.8198     0.3267 N.2     
   7 C7             0.8054    -4.0433     0.7117 C.2     
   8 N8             1.4274    -3.9950     1.9179 N.pl3   
   9 C9             1.5089    -2.6488     2.2775 C.2     
  10 C10            2.0773    -2.1179     3.4531 C.2     
  11 O11            2.6193    -2.9440     4.3738 O.3     
  12 O12            2.0797    -0.9143     3.6385 O.2     
  13 C13            3.1775    -2.3374     5.5411 C.3     
  14 C14            3.7394    -3.4233     6.4610 C.3     
  15 S15            0.4549    -5.5123    -0.1960 S.3     
  16 C16           -0.3574    -4.7986    -1.6475 C.3     
  17 C17            1.9226    -5.1367     2.6910 C.3     
  18 C18            3.3503    -5.4242     2.3039 C.ar    
  19 C19            4.3872    -4.8109     2.9819 C.ar    
  20 C20            5.6968    -5.0746     2.6267 C.ar    
  21 C21            5.9696    -5.9520     1.5939 C.ar    
  22 C22            4.9328    -6.5659     0.9165 C.ar    
  23 C23            3.6232    -6.3055     1.2745 C.ar    
  24 C24            1.3759     2.1645     0.0786 C.3     
  25 C25           -0.7097     1.8747    -1.2662 C.3     
  26 C26            1.2083     3.6840     0.1425 C.3     
  27 C27           -2.1428     1.3394    -1.2403 C.3     
  28 C28           -2.8159     1.6187    -2.5856 C.3     
  29 C29           -4.2490     1.0834    -2.5597 C.3     
  30 H30           -0.5959     1.8439     0.8848 H       
  31 H31            1.0883     0.0010     1.8997 H       
  32 H32            3.9784    -1.6579     5.2498 H       
  33 H33            2.4021    -1.7808     6.0674 H       
  34 H34            4.1651    -2.9606     7.3513 H       
  35 H35            2.9385    -4.1028     6.7523 H       
  36 H36            4.5147    -3.9799     5.9346 H       
  37 H37           -0.6467    -5.5968    -2.3311 H       
  38 H38           -1.2451    -4.2494    -1.3337 H       
  39 H39            0.3304    -4.1199    -2.1518 H       
  40 H40            1.8744    -4.9034     3.7547 H       
  41 H41            1.3064    -6.0113     2.4826 H       
  42 H42            4.1741    -4.1255     3.7888 H       
  43 H43            6.5069    -4.5950     3.1560 H       
  44 H44            6.9928    -6.1574     1.3159 H       
  45 H45            5.1459    -7.2511     0.1093 H       
  46 H46            2.8131    -6.7852     0.7452 H       
  47 H47            1.9185     1.8215     0.9596 H       
  48 H48            1.9344     1.8980    -0.8187 H       
  49 H49           -0.7288     2.9594    -1.3711 H       
  50 H50           -0.1738     1.4376    -2.1088 H       
  51 H51            0.7636     4.0399    -0.7868 H       
  52 H52            0.5588     3.9430     0.9787 H       
  53 H53            2.1831     4.1515     0.2812 H       
  54 H54           -2.1260     0.2648    -1.0585 H       
  55 H55           -2.7009     1.8338    -0.4452 H       
  56 H56           -2.8326     2.6933    -2.7674 H       
  57 H57           -2.2577     1.1243    -3.3807 H       
  58 H58           -4.2322     0.0088    -2.3779 H       
  59 H59           -4.8071     1.5778    -1.7646 H       
  60 H60           -4.7285     1.2824    -3.5181 H       
@<TRIPOS>BOND
   1    1    2 1
   2    1   24 1
   3    1   25 1
   4    1   30 1
   5    2    3 am
   6    2    4 2
   7    3    5 1
   8    3   31 1
   9    5    6 1
  10    5    9 2
  11    6    7 2
  12    7    8 1
  13    7   15 1
  14    8    9 1
  15    8   17 1
  16    9   10 1
  17   10   11 1
  18   10   12 2
  19   11   13 1
  20   13   14 1
  21   13   32 1
  22   13   33 1
  23   14   34 1
  24   14   35 1
  25   14   36 1
  26   15   16 1
  27   16   37 1
  28   16   38 1
  29   16   39 1
  30   17   18 1
  31   17   40 1
  32   17   41 1
  33   18   19 ar
  34   18   23 ar
  35   19   20 ar
  36   19   42 1
  37   20   21 ar
  38   20   43 1
  39   21   22 ar
  40   21   44 1
  41   22   23 ar
  42   22   45 1
  43   23   46 1
  44   24   26 1
  45   24   47 1
  46   24   48 1
  47   25   27 1
  48   25   49 1
  49   25   50 1
  50   26   51 1
  51   26   52 1
  52   26   53 1
  53   27   28 1
  54   27   54 1
  55   27   55 1
  56   28   29 1
  57   28   56 1
  58   28   57 1
  59   29   58 1
  60   29   59 1
  61   29   60 1

#	End of record

