#	Name: ASD01914415
#	Creating user name:	WinNT
#	Creation time:	15. 06. 2019 20:03

#	Modifying user name:	WinNT
#	Modification time:	15. 06. 2019 20:03

#	Program:	/corina/corina34_cracker 3.40 0067  02.08.2006

@<TRIPOS>MOLECULE
ASD01914415
  65   69    0    0    0
SMALL
NO_CHARGES


@<TRIPOS>ATOM
   1 C1            -2.5846     0.5362    -2.3580 C.ar    
   2 C2            -2.1922    -0.7568    -2.0723 C.ar    
   3 C3            -0.9855    -0.9883    -1.4264 C.ar    
   4 C4            -0.1753     0.0807    -1.0689 C.ar    
   5 C5            -0.5709     1.3724    -1.3562 C.ar    
   6 C6            -1.7751     1.6014    -2.0007 C.ar    
   7 N7            -0.5854    -2.3008    -1.1349 N.pl3   
   8 C8            -1.3400    -3.2610    -0.5150 C.2     
   9 C9            -0.5666    -4.3751    -0.4366 C.2     
  10 N10            0.6265    -4.0909    -0.9970 N.2     
  11 C11            0.6207    -2.8577    -1.4203 C.2     
  12 C12           -0.9641    -5.6741     0.1602 C.ar    
  13 C13           -0.0664    -6.7401     0.1738 C.ar    
  14 C14           -0.4388    -7.9464     0.7293 C.ar    
  15 C15           -1.7064    -8.0995     1.2739 C.ar    
  16 C16           -2.6027    -7.0397     1.2618 C.ar    
  17 C17           -2.2339    -5.8290     0.7133 C.ar    
  18 C18            1.7675    -2.1609    -2.1060 C.3     
  19 O19            0.7436    -3.0113    -4.0549 O.2     
  20 C20            1.6607    -2.3643    -3.5954 C.2     
  21 N21            2.5844    -1.8271    -4.4169 N.am    
  22 F22           -2.1605     2.8655    -2.2810 F       
  23 O23           -2.0708    -9.2897     1.8197 O.3     
  24 C24            3.7117    -1.0426    -3.8916 C.3     
  25 C25            2.5089    -2.0071    -5.8766 C.3     
  26 C26            2.3602    -0.6275    -6.5208 C.3     
  27 N27            3.3171     0.3131    -5.9541 N.am    
  28 C28            3.9069     0.1708    -4.7592 C.2     
  29 C29           -3.3898    -9.3778     2.3623 C.3     
  30 O30            4.6267     1.0615    -4.3596 O.2     
  31 C31            3.6463     1.4422    -6.7121 C.ar    
  32 C32            2.8958     2.6029    -6.5913 C.ar    
  33 C33            3.2250     3.7196    -7.3440 C.ar    
  34 C34            4.3035     3.6741    -8.2159 C.ar    
  35 C35            5.0500     2.5170    -8.3350 C.ar    
  36 C36            4.7286     1.4042    -7.5825 C.ar    
  37 O37            2.4917     4.8579    -7.2283 O.3     
  38 C38            2.8879     5.9695    -8.0341 C.3     
  39 H39           -3.5213     0.7164    -2.8645 H       
  40 H40           -2.8240    -1.5873    -2.3508 H       
  41 H41            0.7637    -0.0975    -0.5660 H       
  42 H42            0.0590     2.2043    -1.0779 H       
  43 H43           -2.3534    -3.1532    -0.1575 H       
  44 H44            0.9197    -6.6218    -0.2504 H       
  45 H45            0.2564    -8.7729     0.7402 H       
  46 H46           -3.5882    -7.1618     1.6863 H       
  47 H47           -2.9316    -5.0046     0.7045 H       
  48 H48            1.7316    -1.0949    -1.8814 H       
  49 H49            2.7103    -2.5758    -1.7494 H       
  50 H50            3.4945    -0.7301    -2.8702 H       
  51 H51            4.6167    -1.6501    -3.9046 H       
  52 H52            3.4206    -2.4845    -6.2359 H       
  53 H53            1.6464    -2.6248    -6.1269 H       
  54 H54            2.5327    -0.7121    -7.5937 H       
  55 H55            1.3492    -0.2582    -6.3487 H       
  56 H56           -3.5049    -8.6428     3.1589 H       
  57 H57           -4.1196    -9.1800     1.5772 H       
  58 H58           -3.5511   -10.3779     2.7647 H       
  59 H59            2.0565     2.6364    -5.9124 H       
  60 H60            4.5598     4.5440    -8.8026 H       
  61 H61            5.8887     2.4842    -9.0146 H       
  62 H62            5.3136     0.5014    -7.6771 H       
  63 H63            3.9103     6.2531    -7.7845 H       
  64 H64            2.8344     5.6924    -9.0870 H       
  65 H65            2.2210     6.8109    -7.8456 H       
@<TRIPOS>BOND
   1    1    2 ar
   2    1    6 ar
   3    1   39 1
   4    2    3 ar
   5    2   40 1
   6    3    4 ar
   7    3    7 1
   8    4    5 ar
   9    4   41 1
  10    5    6 ar
  11    5   42 1
  12    6   22 1
  13    7    8 1
  14    7   11 1
  15    8    9 2
  16    8   43 1
  17    9   10 1
  18    9   12 1
  19   10   11 2
  20   11   18 1
  21   12   13 ar
  22   12   17 ar
  23   13   14 ar
  24   13   44 1
  25   14   15 ar
  26   14   45 1
  27   15   16 ar
  28   15   23 1
  29   16   17 ar
  30   16   46 1
  31   17   47 1
  32   18   20 1
  33   18   48 1
  34   18   49 1
  35   19   20 2
  36   20   21 am
  37   21   25 1
  38   21   24 1
  39   23   29 1
  40   24   28 1
  41   24   50 1
  42   24   51 1
  43   25   26 1
  44   25   52 1
  45   25   53 1
  46   26   27 1
  47   26   54 1
  48   26   55 1
  49   27   28 am
  50   27   31 1
  51   28   30 2
  52   29   56 1
  53   29   57 1
  54   29   58 1
  55   31   32 ar
  56   31   36 ar
  57   32   33 ar
  58   32   59 1
  59   33   34 ar
  60   33   37 1
  61   34   35 ar
  62   34   60 1
  63   35   36 ar
  64   35   61 1
  65   36   62 1
  66   37   38 1
  67   38   63 1
  68   38   64 1
  69   38   65 1

#	End of record

