#	Name: ASD03090679
#	Creating user name:	WinNT
#	Creation time:	15. 06. 2019 20:29

#	Modifying user name:	WinNT
#	Modification time:	15. 06. 2019 20:29

#	Program:	/corina/corina34_cracker 3.40 0067  02.08.2006

@<TRIPOS>MOLECULE
ASD03090679
  31   32    0    0    0
SMALL
NO_CHARGES


@<TRIPOS>ATOM
   1 N1            -0.0187     1.3445    -0.0117 N.am    
   2 C2             0.2120     0.0319    -0.2123 C.2     
   3 S3             1.7802    -0.5063    -0.6388 S.2     
   4 N4            -0.7920    -0.8571    -0.0771 N.am    
   5 S5             0.9292    -2.8785    -0.8022 S.3     
   6 C6            -0.5824    -2.1944    -0.3896 C.2     
   7 N7            -1.5045    -3.1055    -0.4104 N.2     
   8 C8            -1.1275    -4.3299    -0.7295 C.2     
   9 C9             0.1745    -4.4592    -0.9905 C.2     
  10 C10           -2.0900    -5.4876    -0.7941 C.3     
  11 F11           -3.3929    -5.0232    -0.5843 F       
  12 F12           -2.0077    -6.0928    -2.0527 F       
  13 F13           -1.7630    -6.4216     0.1948 F       
  14 C14            1.0443     2.2561    -0.0486 C.ar    
  15 C15            0.9015     3.4630    -0.7206 C.ar    
  16 C16            1.9495     4.3612    -0.7563 C.ar    
  17 C17            3.1451     4.0582    -0.1210 C.ar    
  18 C18            3.2887     2.8529     0.5500 C.ar    
  19 C19            2.2392     1.9559     0.5913 C.ar    
  20 C20           -0.3969     3.7920    -1.4112 C.3     
  21 O21            4.1768     4.9433    -0.1565 O.3     
  22 H22           -0.9213     1.6585     0.1544 H       
  23 H23           -1.6609    -0.5632     0.2383 H       
  24 H24            0.6778    -5.3733    -1.2687 H       
  25 H25            1.8386     5.2996    -1.2791 H       
  26 H26            4.2198     2.6176     1.0440 H       
  27 H27            2.3497     1.0193     1.1176 H       
  28 H28           -1.0572     4.3101    -0.7158 H       
  29 H29           -0.1992     4.4328    -2.2705 H       
  30 H30           -0.8735     2.8709    -1.7469 H       
  31 H31            4.1770     5.5766     0.5743 H       
@<TRIPOS>BOND
   1    1    2 am
   2    1   14 1
   3    1   22 1
   4    2    3 2
   5    2    4 am
   6    4    6 1
   7    4   23 1
   8    5    6 1
   9    5    9 1
  10    6    7 2
  11    7    8 1
  12    8    9 2
  13    8   10 1
  14    9   24 1
  15   10   11 1
  16   10   12 1
  17   10   13 1
  18   14   15 ar
  19   14   19 ar
  20   15   16 ar
  21   15   20 1
  22   16   17 ar
  23   16   25 1
  24   17   18 ar
  25   17   21 1
  26   18   19 ar
  27   18   26 1
  28   19   27 1
  29   20   28 1
  30   20   29 1
  31   20   30 1
  32   21   31 1

#	End of record

