#	Name: ASD03731899
#	Creating user name:	WinNT
#	Creation time:	15. 06. 2019 20:46

#	Modifying user name:	WinNT
#	Modification time:	15. 06. 2019 20:46

#	Program:	/corina/corina34_cracker 3.40 0067  02.08.2006

@<TRIPOS>MOLECULE
ASD03731899
  40   41    0    0    0
SMALL
NO_CHARGES


@<TRIPOS>ATOM
   1 C1             0.3764     1.0934     1.9804 C.2     
   2 C2             0.2923    -0.2826     1.4528 C.ar    
   3 C3             1.3754    -0.8359     0.7640 C.ar    
   4 C4             1.2921    -2.1239     0.2727 C.ar    
   5 C5             0.1290    -2.8693     0.4644 C.ar    
   6 C6            -0.9467    -2.3191     1.1482 C.ar    
   7 C7            -0.8676    -1.0364     1.6459 C.ar    
   8 O8             1.3885     1.7467     1.8160 O.2     
   9 N9            -0.6708     1.6275     2.6395 N.am    
  10 S10           -0.5765     3.1713     3.2314 S.o2    
  11 O11           -1.8278     3.3779     3.8723 O.2     
  12 O12            0.6370     3.1896     3.9706 O.2     
  13 C13           -0.4379     4.2148     1.7541 C.3     
  14 O14            2.3438    -2.6651    -0.3983 O.3     
  15 C15            3.5029    -1.8447    -0.5581 C.3     
  16 O16            0.0484    -4.1354    -0.0192 O.3     
  17 C17           -1.1391    -4.7870     0.0933 C.ar    
  18 C18           -2.0930    -4.6700    -0.9077 C.ar    
  19 C19           -3.2993    -5.3328    -0.7920 C.ar    
  20 C20           -3.5570    -6.1137     0.3223 C.ar    
  21 C21           -2.6062    -6.2314     1.3217 C.ar    
  22 C22           -1.3964    -5.5743     1.2061 C.ar    
  23 C23           -4.3357    -5.2056    -1.8786 C.3     
  24 F24           -3.8498    -4.3713    -2.8911 F       
  25 F25           -4.6127    -6.4701    -2.4091 F       
  26 F26           -5.5066    -4.6572    -1.3443 F       
  27 F27           -4.7375    -6.7610     0.4342 F       
  28 H28            2.2753    -0.2574     0.6160 H       
  29 H29           -1.8459    -2.8993     1.2943 H       
  30 H30           -1.7041    -0.6126     2.1817 H       
  31 H31           -1.4798     1.1078     2.7672 H       
  32 H32           -1.3170     4.0731     1.1254 H       
  33 H33           -0.3699     5.2608     2.0532 H       
  34 H34            0.4564     3.9376     1.1961 H       
  35 H35            3.2365    -0.9429    -1.1094 H       
  36 H36            3.8913    -1.5696     0.4225 H       
  37 H37            4.2649    -2.3958    -1.1093 H       
  38 H38           -1.8925    -4.0608    -1.7766 H       
  39 H39           -2.8088    -6.8405     2.1902 H       
  40 H40           -0.6531    -5.6701     1.9837 H       
@<TRIPOS>BOND
   1    1    2 1
   2    1    8 2
   3    1    9 am
   4    2    3 ar
   5    2    7 ar
   6    3    4 ar
   7    3   28 1
   8    4    5 ar
   9    4   14 1
  10    5    6 ar
  11    5   16 1
  12    6    7 ar
  13    6   29 1
  14    7   30 1
  15    9   10 am
  16    9   31 1
  17   10   11 2
  18   10   12 2
  19   10   13 1
  20   13   32 1
  21   13   33 1
  22   13   34 1
  23   14   15 1
  24   15   35 1
  25   15   36 1
  26   15   37 1
  27   16   17 1
  28   17   18 ar
  29   17   22 ar
  30   18   19 ar
  31   18   38 1
  32   19   20 ar
  33   19   23 1
  34   20   21 ar
  35   20   27 1
  36   21   22 ar
  37   21   39 1
  38   22   40 1
  39   23   24 1
  40   23   25 1
  41   23   26 1

#	End of record

