#	Name: ASD05503037
#	Creating user name:	WinNT
#	Creation time:	15. 06. 2019 21:01

#	Modifying user name:	WinNT
#	Modification time:	15. 06. 2019 21:01

#	Program:	/corina/corina34_cracker 3.40 0067  02.08.2006

@<TRIPOS>MOLECULE
ASD05503037
  33   34    0    0    0
SMALL
NO_CHARGES


@<TRIPOS>ATOM
   1 C1            -0.1505     1.3620     0.4396 C.ar    
   2 C2            -0.0933    -0.0171     0.2832 C.ar    
   3 C3             1.1367    -0.6543     0.2026 C.ar    
   4 C4             2.3060     0.0887     0.2786 C.ar    
   5 C5             2.2419     1.4680     0.4350 C.ar    
   6 C6             1.0158     2.0992     0.5150 C.ar    
   7 N7            -1.2748    -0.7629     0.2075 N.am    
   8 C8            -1.3350    -1.8513    -0.5851 C.2     
   9 C9            -2.5641    -2.7232    -0.5758 C.3     
  10 O10           -0.3999    -2.1290    -1.3060 O.2     
  11 N11            3.5476    -0.5497     0.1982 N.am    
  12 C12            4.5808     0.0608    -0.4152 C.2     
  13 C13            5.8619    -0.6536    -0.5913 C.ar    
  14 O14            4.4586     1.1993    -0.8236 O.2     
  15 C15            6.0059    -1.9611    -0.1236 C.ar    
  16 C16            7.2047    -2.6224    -0.2912 C.ar    
  17 C17            8.2641    -1.9934    -0.9213 C.ar    
  18 C18            8.1300    -0.6980    -1.3872 C.ar    
  19 C19            6.9335    -0.0258    -1.2319 C.ar    
  20 Cl20           6.7661     1.5998    -1.8176 Cl      
  21 H21           -1.1075     1.8590     0.4979 H       
  22 H22            1.1838    -1.7265     0.0814 H       
  23 H23            3.1516     2.0471     0.4942 H       
  24 H24            0.9686     3.1713     0.6366 H       
  25 H25           -2.0504    -0.4967     0.7255 H       
  26 H26           -3.2702    -2.3638    -1.3244 H       
  27 H27           -2.2825    -3.7507    -0.8056 H       
  28 H28           -3.0288    -2.6855     0.4095 H       
  29 H29            3.6652    -1.4319     0.5839 H       
  30 H30            5.1804    -2.4536     0.3687 H       
  31 H31            7.3170    -3.6337     0.0707 H       
  32 H32            9.2003    -2.5164    -1.0496 H       
  33 H33            8.9609    -0.2130    -1.8777 H       
@<TRIPOS>BOND
   1    1    2 ar
   2    1    6 ar
   3    1   21 1
   4    2    3 ar
   5    2    7 1
   6    3    4 ar
   7    3   22 1
   8    4    5 ar
   9    4   11 1
  10    5    6 ar
  11    5   23 1
  12    6   24 1
  13    7    8 am
  14    7   25 1
  15    8    9 1
  16    8   10 2
  17    9   26 1
  18    9   27 1
  19    9   28 1
  20   11   12 am
  21   11   29 1
  22   12   13 1
  23   12   14 2
  24   13   15 ar
  25   13   19 ar
  26   15   16 ar
  27   15   30 1
  28   16   17 ar
  29   16   31 1
  30   17   18 ar
  31   17   32 1
  32   18   19 ar
  33   18   33 1
  34   19   20 1

#	End of record

