#	Name: ASD00842050
#	Creating user name:	WinNT
#	Creation time:	15. 06. 2019 18:43

#	Modifying user name:	WinNT
#	Modification time:	15. 06. 2019 18:43

#	Program:	/corina/corina34_cracker 3.40 0067  02.08.2006

@<TRIPOS>MOLECULE
ASD00842050
  94   99    0    0    0
SMALL
NO_CHARGES


@<TRIPOS>ATOM
   1 C1             0.8815     1.5117    -0.7029 C.ar    
   2 C2             1.2156     0.1729    -0.8448 C.ar    
   3 C3             1.1977    -0.6651     0.2609 C.ar    
   4 C4             0.8474    -0.1647     1.4997 C.ar    
   5 C5             0.5142     1.1703     1.6384 C.ar    
   6 C6             0.5318     2.0074     0.5384 C.ar    
   7 C7             1.5596    -2.1202     0.1103 C.3     
   8 C8             1.3458    -2.8580     1.4148 C.2     
   9 C9             0.7388    -2.7625    -1.0099 C.3     
  10 C10           -0.7282    -2.5332    -0.7525 C.2     
  11 N11           -1.6491    -3.0700    -1.5772 N.am    
  12 O12           -1.0802    -1.8656     0.1969 O.2     
  13 C13           -3.0754    -2.7596    -1.4101 C.3     
  14 C14           -3.8568    -4.0730    -1.3039 C.3     
  15 C15           -3.5423    -4.9486    -2.5190 C.3     
  16 C16           -2.0475    -5.2762    -2.5407 C.3     
  17 C17           -1.2451    -3.9721    -2.6644 C.3     
  18 C18           -4.3475    -6.2468    -2.4339 C.3     
  19 C19           -5.8434    -5.9208    -2.4138 C.3     
  20 C20           -6.6444    -7.2245    -2.3901 C.3     
  21 N21           -6.3154    -8.0243    -3.5769 N.3     
  22 C22           -4.8932    -8.3896    -3.5934 C.3     
  23 C23           -4.0399    -7.1207    -3.6530 C.3     
  24 H24           -6.9001    -8.8447    -3.6335 H       
  25 O25            0.2938    -2.9890     2.0039 O.2     
  26 N26            2.5395    -3.3412     1.7971 N.am    
  27 C27            3.0395    -2.2731    -0.1586 C.ar    
  28 C28            3.5537    -3.0180     0.9001 C.ar    
  29 C29            3.8506    -1.8350    -1.1745 C.ar    
  30 C30            5.2169    -2.1372    -1.1538 C.ar    
  31 C31            5.7409    -2.8855    -0.0928 C.ar    
  32 C32            4.9152    -3.3211     0.9214 C.ar    
  33 F33            7.0585    -3.1825    -0.0636 F       
  34 C34            2.5516    -5.9183     2.7630 C.ar    
  35 C35            1.3057    -6.3715     2.3537 C.ar    
  36 C36            3.6167    -6.7956     2.8388 C.ar    
  37 C37            3.4441    -8.1255     2.5069 C.ar    
  38 C38            2.1998    -8.5838     2.0970 C.ar    
  39 C39            1.1298    -7.7059     2.0206 C.ar    
  40 O40            2.0305    -9.8922     1.7711 O.3     
  41 O41            0.2586    -5.5084     2.2799 O.3     
  42 C42            3.1764   -10.7398     1.8735 C.3     
  43 C43           -0.9947    -6.0442     1.8508 C.3     
  44 C44           -2.0448    -4.9316     1.8304 C.3     
  45 C45            6.0721    -1.6850    -2.2096 C.1     
  46 N46            6.7506    -1.3263    -3.0472 N.1     
  47 O47            1.5595    -0.3172    -2.0648 O.3     
  48 C48            1.9712    -0.1170    -4.4378 C.3     
  49 C49            1.4478     0.5734    -3.1767 C.3     
  50 S50            2.7777    -4.2212     3.1796 S.o2    
  51 O51            4.1491    -4.0708     3.5197 O.2     
  52 O52            1.7164    -3.8795     4.0606 O.2     
  53 H53            0.8990     2.1670    -1.5612 H       
  54 H54            0.8333    -0.8165     2.3607 H       
  55 H55            0.2399     1.5596     2.6078 H       
  56 H56            0.2712     3.0496     0.6493 H       
  57 H57            1.0144    -2.3149    -1.9647 H       
  58 H58            0.9395    -3.8334    -1.0392 H       
  59 H59           -3.2181    -2.1751    -0.5012 H       
  60 H60           -3.4293    -2.1925    -2.2711 H       
  61 H61           -3.5662    -4.5966    -0.3932 H       
  62 H62           -4.9253    -3.8594    -1.2762 H       
  63 H63           -3.8102    -4.4145    -3.4307 H       
  64 H64           -1.7740    -5.7885    -1.6183 H       
  65 H65           -1.8283    -5.9191    -3.3932 H       
  66 H66           -1.4509    -3.5064    -3.6282 H       
  67 H67           -0.1802    -4.1889    -2.5809 H       
  68 H68           -4.0792    -6.7828    -1.5234 H       
  69 H69           -6.0762    -5.3344    -1.5249 H       
  70 H70           -6.1035    -5.3501    -3.3053 H       
  71 H71           -6.3941    -7.7883    -1.4914 H       
  72 H72           -7.7102    -6.9960    -2.3902 H       
  73 H73           -4.6511    -8.9479    -2.6890 H       
  74 H74           -4.6870    -9.0074    -4.4675 H       
  75 H75           -4.2715    -6.5688    -4.5640 H       
  76 H76           -2.9841    -7.3916    -3.6495 H       
  77 H77            3.4358    -1.2587    -1.9883 H       
  78 H78            5.3246    -3.8981     1.7373 H       
  79 H79            4.5857    -6.4409     3.1576 H       
  80 H80            4.2782    -8.8090     2.5662 H       
  81 H81            0.1607    -8.0607     1.7021 H       
  82 H82            3.9605   -10.3722     1.2115 H       
  83 H83            3.5386   -10.7385     2.9015 H       
  84 H84            2.9042   -11.7552     1.5854 H       
  85 H85           -0.8879    -6.4614     0.8495 H       
  86 H86           -1.3095    -6.8283     2.5394 H       
  87 H87           -2.1517    -4.5144     2.8317 H       
  88 H88           -1.7300    -4.1475     1.1418 H       
  89 H89           -3.0008    -5.3403     1.5031 H       
  90 H90            1.9678     0.5901    -5.2672 H       
  91 H91            2.9883    -0.4684    -4.2640 H       
  92 H92            1.3305    -0.9648    -4.6804 H       
  93 H93            0.4024     0.8470    -3.3196 H       
  94 H94            2.0351     1.4711    -2.9836 H       
@<TRIPOS>BOND
   1    1    2 ar
   2    1    6 ar
   3    1   53 1
   4    2    3 ar
   5    2   47 1
   6    3    4 ar
   7    3    7 1
   8    4    5 ar
   9    4   54 1
  10    5    6 ar
  11    5   55 1
  12    6   56 1
  13    7    8 1
  14    7    9 1
  15    7   27 1
  16    8   25 2
  17    8   26 am
  18    9   10 1
  19    9   57 1
  20    9   58 1
  21   10   11 am
  22   10   12 2
  23   11   13 1
  24   11   17 1
  25   13   14 1
  26   13   59 1
  27   13   60 1
  28   14   15 1
  29   14   61 1
  30   14   62 1
  31   15   16 1
  32   15   18 1
  33   15   63 1
  34   16   17 1
  35   16   64 1
  36   16   65 1
  37   17   66 1
  38   17   67 1
  39   18   19 1
  40   18   23 1
  41   18   68 1
  42   19   20 1
  43   19   69 1
  44   19   70 1
  45   20   21 1
  46   20   71 1
  47   20   72 1
  48   21   22 1
  49   21   24 1
  50   22   23 1
  51   22   73 1
  52   22   74 1
  53   23   75 1
  54   23   76 1
  55   26   50 am
  56   26   28 1
  57   27   28 ar
  58   27   29 ar
  59   28   32 ar
  60   29   30 ar
  61   29   77 1
  62   30   31 ar
  63   30   45 1
  64   31   32 ar
  65   31   33 1
  66   32   78 1
  67   34   35 ar
  68   34   36 ar
  69   34   50 1
  70   35   41 1
  71   35   39 ar
  72   36   37 ar
  73   36   79 1
  74   37   38 ar
  75   37   80 1
  76   38   39 ar
  77   38   40 1
  78   39   81 1
  79   40   42 1
  80   41   43 1
  81   42   82 1
  82   42   83 1
  83   42   84 1
  84   43   44 1
  85   43   85 1
  86   43   86 1
  87   44   87 1
  88   44   88 1
  89   44   89 1
  90   45   46 3
  91   47   49 1
  92   48   49 1
  93   48   90 1
  94   48   91 1
  95   48   92 1
  96   49   93 1
  97   49   94 1
  98   50   51 2
  99   50   52 2

#	End of record

