#	Name: ASD01940086
#	Creating user name:	WinNT
#	Creation time:	15. 06. 2019 20:11

#	Modifying user name:	WinNT
#	Modification time:	15. 06. 2019 20:11

#	Program:	/corina/corina34_cracker 3.40 0067  02.08.2006

@<TRIPOS>MOLECULE
ASD01940086
  32   33    0    0    0
SMALL
NO_CHARGES


@<TRIPOS>ATOM
   1 Br1            2.7857    -4.3931    -1.5814 Br      
   2 F2             1.9036     1.5950     2.2858 F       
   3 C3             1.0649     2.1488     1.3828 C.ar    
   4 C4             1.3891     2.1336     0.0327 C.ar    
   5 C5             0.5204     2.7058    -0.8952 C.ar    
   6 C6            -0.6632     3.2876    -0.4660 C.ar    
   7 C7            -0.9805     3.3003     0.8797 C.ar    
   8 C8            -0.1221     2.7275     1.8027 C.ar    
   9 N9             2.5867     1.5447    -0.3959 N.pl3   
  10 N10            0.8426     2.6937    -2.2589 N.am    
  11 C11            2.6332     0.1740    -0.6697 C.ar    
  12 C12            1.4781    -0.5914    -0.5871 C.ar    
  13 C13            1.5268    -1.9455    -0.8581 C.ar    
  14 C14            2.7248    -2.5396    -1.2116 C.ar    
  15 C15            3.8792    -1.7806    -1.2949 C.ar    
  16 C16            3.8363    -0.4244    -1.0311 C.ar    
  17 F17            4.9629     0.3167    -1.1127 F       
  18 F18           -0.4399     2.7374     3.1158 F       
  19 S19            0.4261     3.9767    -3.2195 S.o2    
  20 O20            0.9907     3.6643    -4.4855 O.2     
  21 O21           -0.9802     4.0964    -3.0540 O.2     
  22 C22            1.2777     5.3948    -2.4751 C.3     
  23 Cl23           0.9127     6.8822    -3.4265 Cl      
  24 H24           -1.3374     3.7314    -1.1836 H       
  25 H25           -1.9024     3.7546     1.2114 H       
  26 H26            3.3832     2.0879    -0.5026 H       
  27 H27            1.3096     1.9338    -2.6401 H       
  28 H28            0.5420    -0.1290    -0.3108 H       
  29 H29            0.6281    -2.5410    -0.7934 H       
  30 H30            4.8132    -2.2474    -1.5709 H       
  31 H31            0.9349     5.5267    -1.4488 H       
  32 H32            2.3529     5.2158    -2.4788 H       
@<TRIPOS>BOND
   1    1   14 1
   2    2    3 1
   3    3    4 ar
   4    3    8 ar
   5    4    5 ar
   6    4    9 1
   7    5    6 ar
   8    5   10 1
   9    6    7 ar
  10    6   24 1
  11    7    8 ar
  12    7   25 1
  13    8   18 1
  14    9   11 1
  15    9   26 1
  16   10   19 am
  17   10   27 1
  18   11   12 ar
  19   11   16 ar
  20   12   13 ar
  21   12   28 1
  22   13   14 ar
  23   13   29 1
  24   14   15 ar
  25   15   16 ar
  26   15   30 1
  27   16   17 1
  28   19   20 2
  29   19   21 2
  30   19   22 1
  31   22   23 1
  32   22   31 1
  33   22   32 1

#	End of record

