#	Name: ASD00310357
#	Creating user name:	WinNT
#	Creation time:	15. 06. 2019 18:34

#	Modifying user name:	WinNT
#	Modification time:	15. 06. 2019 18:34

#	Program:	/corina/corina34_cracker 3.40 0067  02.08.2006

@<TRIPOS>MOLECULE
ASD00310357
  34   37    0    0    0
SMALL
NO_CHARGES


@<TRIPOS>ATOM
   1 N1            -0.0153     1.2794     0.0091 N.pl3   
   2 N2             0.0021    -0.0041     0.0020 N.2     
   3 C3             1.2292    -0.4800    -0.0122 C.2     
   4 C4             2.1244     0.6858    -0.0145 C.ar    
   5 C5             3.5014     0.8764    -0.0270 C.ar    
   6 C6             4.0088     2.1687    -0.0253 C.ar    
   7 C7             3.1375     3.2656    -0.0111 C.ar    
   8 C8             1.7847     3.0822     0.0016 C.ar    
   9 C9             1.2550     1.7947    -0.0003 C.ar    
  10 C10            1.6261    -1.8976    -0.0232 C.2     
  11 O11            2.8035    -2.1990    -0.0357 O.2     
  12 O12            0.6838    -2.8614    -0.0195 O.3     
  13 O13            9.5680     2.9919    -0.0492 O.3     
  14 C14            8.2203     2.7998    -0.0568 C.ar    
  15 C15            7.4124     3.4671    -0.9722 C.ar    
  16 O16            7.9519     4.3224    -1.8837 O.3     
  17 C17            9.2800     4.7883    -1.6212 C.3     
  18 C18           10.1410     3.5826    -1.2206 C.3     
  19 C19            6.0431     3.2630    -0.9628 C.ar    
  20 C20            5.4759     2.3884    -0.0381 C.ar    
  21 C21            6.2898     1.7210     0.8749 C.ar    
  22 C22            7.6540     1.9278     0.8625 C.ar    
  23 Cl23           3.7853     4.8762    -0.0091 Cl      
  24 H24           -0.8235     1.8157     0.0160 H       
  25 H25            4.1695     0.0280    -0.0376 H       
  26 H26            1.1246     3.9369     0.0129 H       
  27 H27            0.9928    -3.7776    -0.0270 H       
  28 H28            9.6910     5.2518    -2.5180 H       
  29 H29            9.2612     5.5133    -0.8075 H       
  30 H30           11.1577     3.9120    -1.0064 H       
  31 H31           10.1531     2.8541    -2.0312 H       
  32 H32            5.4147     3.7818    -1.6715 H       
  33 H33            5.8529     1.0422     1.5923 H       
  34 H34            8.2833     1.4093     1.5706 H       
@<TRIPOS>BOND
   1    1    2 1
   2    1    9 1
   3    1   24 1
   4    2    3 2
   5    3    4 1
   6    3   10 1
   7    4    5 ar
   8    4    9 ar
   9    5    6 ar
  10    5   25 1
  11    6    7 ar
  12    6   20 1
  13    7    8 ar
  14    7   23 1
  15    8    9 ar
  16    8   26 1
  17   10   11 2
  18   10   12 1
  19   12   27 1
  20   13   14 1
  21   13   18 1
  22   14   15 ar
  23   14   22 ar
  24   15   16 1
  25   15   19 ar
  26   16   17 1
  27   17   18 1
  28   17   28 1
  29   17   29 1
  30   18   30 1
  31   18   31 1
  32   19   20 ar
  33   19   32 1
  34   20   21 ar
  35   21   22 ar
  36   21   33 1
  37   22   34 1

#	End of record

