#	Name: ASD02030127
#	Creating user name:	WinNT
#	Creation time:	15. 06. 2019 20:14

#	Modifying user name:	WinNT
#	Modification time:	15. 06. 2019 20:14

#	Program:	/corina/corina34_cracker 3.40 0067  02.08.2006

@<TRIPOS>MOLECULE
ASD02030127
  54   57    0    0    0
SMALL
NO_CHARGES


@<TRIPOS>ATOM
   1 N1            -0.0473     1.6304    -0.1896 N.am    
   2 C2            -0.1795     0.1703    -0.2925 C.3     
   3 C3            -1.0300    -0.3288     0.8822 C.3     
   4 N4            -2.2486     0.4890     0.9605 N.am    
   5 C5            -2.1164     1.9490     1.0634 C.3     
   6 C6            -1.2658     2.4477    -0.1057 C.3     
   7 C7             1.1697     2.2090    -0.1670 C.2     
   8 C8             2.3858     1.3706    -0.1060 C.2     
   9 N9             3.6176     1.8046     0.0525 N.2     
  10 N10            2.4272     0.0286    -0.1970 N.2     
  11 C11            3.6821    -0.3294    -0.0974 C.2     
  12 N12            4.4149     0.7923     0.0584 N.pl3   
  13 O13            1.2674     3.4203    -0.1967 O.2     
  14 C14           -3.4656    -0.0897     0.9379 C.2     
  15 C15           -3.5834    -1.5664     0.9111 C.ar    
  16 O16           -4.4663     0.5997     0.9395 O.2     
  17 C17           -0.8885     3.9128     0.1221 C.3     
  18 C18           -2.0557     2.3139    -1.4092 C.3     
  19 C19            5.8078     0.8475     0.2018 C.ar    
  20 C20            6.4431     2.0721     0.3553 C.ar    
  21 C21            7.8174     2.1230     0.4971 C.ar    
  22 C22            8.5588     0.9547     0.4855 C.ar    
  23 C23            7.9277    -0.2662     0.3327 C.ar    
  24 C24            6.5546    -0.3234     0.1964 C.ar    
  25 C25           -4.8000    -2.1563     0.5756 C.ar    
  26 Cl26           8.6135     3.6537     0.6892 Cl      
  27 N27           -2.5275    -2.3161     1.2017 N.ar    
  28 C28           -2.5896    -3.6298     1.1895 C.ar    
  29 C29           -3.7689    -4.2836     0.8703 C.ar    
  30 C30           -4.8948    -3.5388     0.5548 C.ar    
  31 C31           -1.3613    -4.4351     1.5267 C.3     
  32 F32           -0.3329    -3.5733     1.9227 F       
  33 F33           -1.6556    -5.3200     2.5695 F       
  34 F34           -0.9550    -5.1596     0.4010 F       
  35 H35           -0.6671    -0.0875    -1.2327 H       
  36 H36            0.8075    -0.2902    -0.2512 H       
  37 H37           -1.2996    -1.3726     0.7212 H       
  38 H38           -0.4651    -0.2331     1.8094 H       
  39 H39           -3.1035     2.4096     1.0220 H       
  40 H40           -1.6288     2.2069     2.0035 H       
  41 H41            4.0617    -1.3399    -0.1306 H       
  42 H42           -0.1520     3.9781     0.9230 H       
  43 H43           -0.4665     4.3260    -0.7941 H       
  44 H44           -1.7781     4.4782     0.3995 H       
  45 H45           -2.9668     2.9088    -1.3446 H       
  46 H46           -1.4475     2.6699    -2.2407 H       
  47 H47           -2.3156     1.2678    -1.5708 H       
  48 H48            5.8645     2.9840     0.3637 H       
  49 H49            9.6324     0.9965     0.5957 H       
  50 H50            8.5090    -1.1764     0.3236 H       
  51 H51            6.0627    -1.2775     0.0774 H       
  52 H52           -5.6573    -1.5449     0.3354 H       
  53 H53           -3.8093    -5.3628     0.8628 H       
  54 H54           -5.8258    -4.0249     0.3030 H       
@<TRIPOS>BOND
   1    1    2 1
   2    1    7 am
   3    1    6 1
   4    2    3 1
   5    2   35 1
   6    2   36 1
   7    3    4 1
   8    3   37 1
   9    3   38 1
  10    4    5 1
  11    4   14 am
  12    5    6 1
  13    5   39 1
  14    5   40 1
  15    6   17 1
  16    6   18 1
  17    7    8 1
  18    7   13 2
  19    8    9 2
  20    8   10 1
  21    9   12 1
  22   10   11 2
  23   11   12 1
  24   11   41 1
  25   12   19 1
  26   14   15 1
  27   14   16 2
  28   15   27 ar
  29   15   25 ar
  30   17   42 1
  31   17   43 1
  32   17   44 1
  33   18   45 1
  34   18   46 1
  35   18   47 1
  36   19   20 ar
  37   19   24 ar
  38   20   21 ar
  39   20   48 1
  40   21   22 ar
  41   21   26 1
  42   22   23 ar
  43   22   49 1
  44   23   24 ar
  45   23   50 1
  46   24   51 1
  47   25   30 ar
  48   25   52 1
  49   27   28 ar
  50   28   29 ar
  51   28   31 1
  52   29   30 ar
  53   29   53 1
  54   30   54 1
  55   31   32 1
  56   31   33 1
  57   31   34 1

#	End of record

