#	Name: ASD00170451
#	Creating user name:	WinNT
#	Creation time:	15. 06. 2019 18:32

#	Modifying user name:	WinNT
#	Modification time:	15. 06. 2019 18:32

#	Program:	/corina/corina34_cracker 3.40 0067  02.08.2006

@<TRIPOS>MOLECULE
ASD00170451
  70   74    0    0    0
SMALL
NO_CHARGES


@<TRIPOS>ATOM
   1 C1            -0.4420     0.7741    -0.3101 C.2     
   2 C2            -0.6392    -0.5109     0.1463 C.2     
   3 C3            -1.9982    -0.9650    -0.0297 C.2     
   4 C4            -2.7871    -0.0457    -0.5995 C.2     
   5 S5            -1.8880     1.4227    -0.9365 S.3     
   6 C6            -2.4787    -2.3320     0.3844 C.3     
   7 N7             0.7604     1.4460    -0.2612 N.pl3   
   8 C8             0.4167    -1.3285     0.7452 C.2     
   9 C9             1.2140    -2.2421    -0.1010 C.ar    
  10 O10            0.6387    -1.2564     1.9403 O.2     
  11 C11            2.2922    -2.9411     0.4450 C.ar    
  12 C12            3.0317    -3.7921    -0.3490 C.ar    
  13 C13            2.7067    -3.9542    -1.6857 C.ar    
  14 C14            1.6380    -3.2634    -2.2330 C.ar    
  15 C15            0.8879    -2.4137    -1.4477 C.ar    
  16 Cl16           3.6427    -5.0269    -2.6792 Cl      
  17 C17           -4.2213    -0.2394    -0.8989 C.ar    
  18 C18           -5.1517     0.7336    -0.5301 C.ar    
  19 C19           -6.4894     0.5476    -0.8121 C.ar    
  20 C20           -6.9103    -0.6012    -1.4596 C.ar    
  21 C21           -5.9917    -1.5716    -1.8282 C.ar    
  22 C22           -4.6501    -1.3937    -1.5569 C.ar    
  23 N23           -2.2607    -2.5117     1.8260 N.3     
  24 C24           -3.3076    -1.8370     2.6049 C.3     
  25 C25           -2.1825    -3.9370     2.1730 C.3     
  26 C26           -0.9631    -4.5616     1.4918 C.3     
  27 C27           -0.8817    -6.0461     1.8532 C.3     
  28 C28           -0.7505    -6.1952     3.3702 C.3     
  29 C29           -1.9699    -5.5706     4.0514 C.3     
  30 C30           -2.0513    -4.0862     3.6900 C.3     
  31 C31           -3.1108    -0.3221     2.5190 C.3     
  32 C32           -4.2012     0.3806     3.3302 C.3     
  33 C33           -5.5745     0.0120     2.7655 C.3     
  34 C34           -5.7714    -1.5029     2.8513 C.3     
  35 C35           -4.6810    -2.2056     2.0401 C.3     
  36 Cl36          -8.5952    -0.8278    -1.8108 Cl      
  37 Cl37          -6.5285    -3.0095    -2.6394 Cl      
  38 H38           -3.5418    -2.4259     0.1632 H       
  39 H39           -1.9247    -3.0936    -0.1645 H       
  40 H40            1.5239     1.0424     0.1805 H       
  41 H41            0.8431     2.3225    -0.6684 H       
  42 H42            2.5468    -2.8153     1.4869 H       
  43 H43            3.8663    -4.3331     0.0721 H       
  44 H44            1.3895    -3.3935    -3.2759 H       
  45 H45            0.0547    -1.8759    -1.8754 H       
  46 H46           -4.8251     1.6303    -0.0245 H       
  47 H47           -7.2099     1.2998    -0.5267 H       
  48 H48           -3.9348    -2.1500    -1.8447 H       
  49 H49           -3.2463    -2.1529     3.6463 H       
  50 H50           -3.0866    -4.4434     1.8349 H       
  51 H51           -1.0566    -4.4553     0.4110 H       
  52 H52           -0.0590    -4.0552     1.8298 H       
  53 H53           -1.7858    -6.5524     1.5151 H       
  54 H54           -0.0130    -6.4910     1.3679 H       
  55 H55           -0.6925    -7.2528     3.6277 H       
  56 H56            0.1536    -5.6888     3.7083 H       
  57 H57           -2.8740    -6.0770     3.7134 H       
  58 H58           -1.8764    -5.6769     5.1322 H       
  59 H59           -1.1472    -3.5798     4.0281 H       
  60 H60           -2.9200    -3.6412     4.1753 H       
  61 H61           -2.1324    -0.0595     2.9214 H       
  62 H62           -3.1721    -0.0062     1.4776 H       
  63 H63           -4.1398     0.0647     4.3716 H       
  64 H64           -4.0609     1.4598     3.2691 H       
  65 H65           -6.3513     0.5127     3.3434 H       
  66 H66           -5.6358     0.3279     1.7241 H       
  67 H67           -5.7100    -1.8188     3.8927 H       
  68 H68           -6.7498    -1.7655     2.4490 H       
  69 H69           -4.7423    -1.8897     0.9987 H       
  70 H70           -4.8212    -3.2848     2.1012 H       
@<TRIPOS>BOND
   1    1    2 2
   2    1    7 1
   3    1    5 1
   4    2    3 1
   5    2    8 1
   6    3    4 2
   7    3    6 1
   8    4    5 1
   9    4   17 1
  10    6   23 1
  11    6   38 1
  12    6   39 1
  13    7   40 1
  14    7   41 1
  15    8    9 1
  16    8   10 2
  17    9   11 ar
  18    9   15 ar
  19   11   12 ar
  20   11   42 1
  21   12   13 ar
  22   12   43 1
  23   13   14 ar
  24   13   16 1
  25   14   15 ar
  26   14   44 1
  27   15   45 1
  28   17   18 ar
  29   17   22 ar
  30   18   19 ar
  31   18   46 1
  32   19   20 ar
  33   19   47 1
  34   20   21 ar
  35   20   36 1
  36   21   22 ar
  37   21   37 1
  38   22   48 1
  39   23   24 1
  40   23   25 1
  41   24   31 1
  42   24   35 1
  43   24   49 1
  44   25   26 1
  45   25   30 1
  46   25   50 1
  47   26   27 1
  48   26   51 1
  49   26   52 1
  50   27   28 1
  51   27   53 1
  52   27   54 1
  53   28   29 1
  54   28   55 1
  55   28   56 1
  56   29   30 1
  57   29   57 1
  58   29   58 1
  59   30   59 1
  60   30   60 1
  61   31   32 1
  62   31   61 1
  63   31   62 1
  64   32   33 1
  65   32   63 1
  66   32   64 1
  67   33   34 1
  68   33   65 1
  69   33   66 1
  70   34   35 1
  71   34   67 1
  72   34   68 1
  73   35   69 1
  74   35   70 1

#	End of record

