#	Name: ASD01885482
#	Creating user name:	WinNT
#	Creation time:	15. 06. 2019 19:49

#	Modifying user name:	WinNT
#	Modification time:	15. 06. 2019 19:49

#	Program:	/corina/corina34_cracker 3.40 0067  02.08.2006

@<TRIPOS>MOLECULE
ASD01885482
  51   54    0    0    0
SMALL
NO_CHARGES


@<TRIPOS>ATOM
   1 C1            -0.0432     1.1571    -0.5563 C.ar    
   2 C2             0.0589    -0.0783    -1.1960 C.ar    
   3 N3            -1.0096    -0.8370    -1.5494 N.2     
   4 C4            -2.1037    -0.4144    -2.0697 C.2     
   5 C5            -2.3457     1.0501    -2.3252 C.3     
   6 C6            -2.3383     1.7662    -0.9983 C.2     
   7 N7            -1.2520     1.7555    -0.2260 N.am    
   8 C8             1.1180     1.8537    -0.2240 C.ar    
   9 C9             2.3654     1.3342    -0.5265 C.ar    
  10 C10            2.4680     0.1044    -1.1696 C.ar    
  11 C11            1.3319    -0.5932    -1.5004 C.ar    
  12 C12           -3.1501    -1.3869    -2.4268 C.ar    
  13 O13           -3.3306     2.3591    -0.6310 O.2     
  14 C14           -4.4190    -0.9439    -2.8110 C.ar    
  15 C15           -5.3944    -1.8604    -3.1442 C.ar    
  16 C16           -5.1200    -3.2157    -3.0985 C.ar    
  17 C17           -3.8655    -3.6628    -2.7184 C.ar    
  18 C18           -2.8777    -2.7576    -2.3888 C.ar    
  19 N19            3.5200     2.0445    -0.1869 N.pl3   
  20 C20            4.6245     1.3775     0.2667 C.2     
  21 N21            5.7561     2.0308     0.4642 N.2     
  22 N22            4.5580     0.0355     0.5158 N.pl3   
  23 C23            5.7806    -0.7169     0.8075 C.3     
  24 C24            5.7955     3.3773     0.3174 C.1     
  25 N25            5.8286     4.5061     0.1943 N.1     
  26 C26            5.4353    -2.1647     1.0432 C.ar    
  27 C27            5.4179    -3.0524    -0.0163 C.ar    
  28 C28            5.1011    -4.3805     0.1999 C.ar    
  29 C29            4.8022    -4.8210     1.4757 C.ar    
  30 C30            4.8205    -3.9334     2.5353 C.ar    
  31 C31            5.1415    -2.6062     2.3198 C.ar    
  32 Br32          -3.5031    -5.5178    -2.6594 Br      
  33 H33           -1.5557     1.4479    -2.9623 H       
  34 H34           -3.3126     1.1841    -2.8102 H       
  35 H35           -1.3105     2.1984     0.6350 H       
  36 H36            1.0437     2.8089     0.2745 H       
  37 H37            3.4401    -0.3011    -1.4086 H       
  38 H38            1.4170    -1.5474    -1.9992 H       
  39 H39           -4.6353     0.1137    -2.8466 H       
  40 H40           -6.3751    -1.5192    -3.4412 H       
  41 H41           -5.8880    -3.9285    -3.3602 H       
  42 H42           -1.8997    -3.1073    -2.0929 H       
  43 H43            3.5381     3.0105    -0.2729 H       
  44 H44            3.7011    -0.4189     0.4994 H       
  45 H45            6.4652    -0.6395    -0.0372 H       
  46 H46            6.2556    -0.3069     1.6989 H       
  47 H47            5.6514    -2.7083    -1.0130 H       
  48 H48            5.0868    -5.0739    -0.6279 H       
  49 H49            4.5540    -5.8584     1.6445 H       
  50 H50            4.5866    -4.2775     3.5320 H       
  51 H51            5.1558    -1.9128     3.1477 H       
@<TRIPOS>BOND
   1    1    2 ar
   2    1    8 ar
   3    1    7 1
   4    2    3 1
   5    2   11 ar
   6    3    4 2
   7    4    5 1
   8    4   12 1
   9    5    6 1
  10    5   33 1
  11    5   34 1
  12    6    7 am
  13    6   13 2
  14    7   35 1
  15    8    9 ar
  16    8   36 1
  17    9   10 ar
  18    9   19 1
  19   10   11 ar
  20   10   37 1
  21   11   38 1
  22   12   14 ar
  23   12   18 ar
  24   14   15 ar
  25   14   39 1
  26   15   16 ar
  27   15   40 1
  28   16   17 ar
  29   16   41 1
  30   17   18 ar
  31   17   32 1
  32   18   42 1
  33   19   20 1
  34   19   43 1
  35   20   21 2
  36   20   22 1
  37   21   24 1
  38   22   23 1
  39   22   44 1
  40   23   26 1
  41   23   45 1
  42   23   46 1
  43   24   25 3
  44   26   27 ar
  45   26   31 ar
  46   27   28 ar
  47   27   47 1
  48   28   29 ar
  49   28   48 1
  50   29   30 ar
  51   29   49 1
  52   30   31 ar
  53   30   50 1
  54   31   51 1

#	End of record

