#	Name: ASD00071092
#	Creating user name:	WinNT
#	Creation time:	15. 06. 2019 18:30

#	Modifying user name:	WinNT
#	Modification time:	15. 06. 2019 18:30

#	Program:	/corina/corina34_cracker 3.40 0067  02.08.2006

@<TRIPOS>MOLECULE
ASD00071092
  49   52    0    0    0
SMALL
NO_CHARGES


@<TRIPOS>ATOM
   1 N1            -0.0123     1.4028    -0.0281 N.2     
   2 C2            -0.0242     0.0926    -0.0652 C.2     
   3 N3             1.1565    -0.6111    -0.1186 N.pl3   
   4 C4             2.3069    -0.0074    -0.8083 C.3     
   5 C5             2.3449     1.4596    -0.4536 C.ar    
   6 C6             3.5300     2.1599    -0.4945 C.ar    
   7 C7             3.5480     3.5076    -0.1783 C.ar    
   8 C8             2.3785     4.1554     0.1789 C.ar    
   9 C9             1.1865     3.4628     0.2281 C.ar    
  10 C10            1.1612     2.1023    -0.0853 C.ar    
  11 N11           -1.2200    -0.5802    -0.0501 N.pl3   
  12 C12           -2.3548    -0.0851     0.7439 C.3     
  13 C13           -3.5890    -0.0154    -0.1616 C.3     
  14 N14           -3.7997    -1.3224    -0.7984 N.3     
  15 C15           -2.6729    -1.6776    -1.6713 C.3     
  16 C16           -1.4030    -1.8121    -0.8325 C.3     
  17 C17            1.2661    -1.9348     0.4993 C.3     
  18 C18            1.8597    -1.7982     1.8777 C.ar    
  19 C19            1.0820    -1.3250     2.9249 C.ar    
  20 C20            1.6313    -1.2003     4.1924 C.ar    
  21 C21            2.9510    -1.5474     4.4093 C.ar    
  22 C22            3.7238    -2.0182     3.3643 C.ar    
  23 C23            3.1768    -2.1492     2.1010 C.ar    
  24 O24           -0.2156    -0.9838     2.7088 O.3     
  25 C25           -0.9561    -0.5042     3.8330 C.3     
  26 H26            3.2277    -0.4898    -0.4805 H       
  27 H27            2.1928    -0.1233    -1.8861 H       
  28 H28            4.4449     1.6579    -0.7728 H       
  29 H29            4.4782     4.0553    -0.2100 H       
  30 H30            2.3991     5.2078     0.4205 H       
  31 H31            0.2758     3.9712     0.5081 H       
  32 H32           -2.5467    -0.7666     1.5727 H       
  33 H33           -2.1264     0.9087     1.1288 H       
  34 H34           -4.4637     0.2437     0.4349 H       
  35 H35           -3.4344     0.7426    -0.9295 H       
  36 H36           -3.9617    -2.0394    -0.1072 H       
  37 H37           -2.8831    -2.6240    -2.1697 H       
  38 H38           -2.5310    -0.8965    -2.4182 H       
  39 H39           -0.5457    -1.9595    -1.4893 H       
  40 H40           -1.5017    -2.6628    -0.1582 H       
  41 H41            0.2759    -2.3845     0.5731 H       
  42 H42            1.9084    -2.5690    -0.1117 H       
  43 H43            1.0281    -0.8319     5.0090 H       
  44 H44            3.3792    -1.4505     5.3961 H       
  45 H45            4.7554    -2.2883     3.5357 H       
  46 H46            3.7812    -2.5218     1.2872 H       
  47 H47           -0.9800    -1.2717     4.6066 H       
  48 H48           -0.4789     0.3934     4.2263 H       
  49 H49           -1.9743    -0.2684     3.5236 H       
@<TRIPOS>BOND
   1    1    2 2
   2    1   10 1
   3    2    3 1
   4    2   11 1
   5    3    4 1
   6    3   17 1
   7    4    5 1
   8    4   26 1
   9    4   27 1
  10    5    6 ar
  11    5   10 ar
  12    6    7 ar
  13    6   28 1
  14    7    8 ar
  15    7   29 1
  16    8    9 ar
  17    8   30 1
  18    9   10 ar
  19    9   31 1
  20   11   12 1
  21   11   16 1
  22   12   13 1
  23   12   32 1
  24   12   33 1
  25   13   14 1
  26   13   34 1
  27   13   35 1
  28   14   15 1
  29   14   36 1
  30   15   16 1
  31   15   37 1
  32   15   38 1
  33   16   39 1
  34   16   40 1
  35   17   18 1
  36   17   41 1
  37   17   42 1
  38   18   19 ar
  39   18   23 ar
  40   19   20 ar
  41   19   24 1
  42   20   21 ar
  43   20   43 1
  44   21   22 ar
  45   21   44 1
  46   22   23 ar
  47   22   45 1
  48   23   46 1
  49   24   25 1
  50   25   47 1
  51   25   48 1
  52   25   49 1

#	End of record

