#	Name: ASD00960297
#	Creating user name:	WinNT
#	Creation time:	15. 06. 2019 18:53

#	Modifying user name:	WinNT
#	Modification time:	15. 06. 2019 18:53

#	Program:	/corina/corina34_cracker 3.40 0067  02.08.2006

@<TRIPOS>MOLECULE
ASD00960297
  38   40    0    0    0
SMALL
NO_CHARGES


@<TRIPOS>ATOM
   1 C1            -0.0171     1.4110     0.0098 C.2     
   2 N2             2.0950     0.7268    -0.0198 N.pl3   
   3 C3             1.3209    -0.3846    -0.0093 C.2     
   4 C4             0.0021    -0.0041     0.0020 C.2     
   5 N5             3.4957     0.6434    -0.0555 N.2     
   6 C6             4.0410    -0.5108    -0.3001 C.2     
   7 N7             3.2859    -1.6310    -0.5665 N.pl3   
   8 C8             1.9319    -1.7666     0.0003 C.3     
   9 N9             2.0111    -2.2722     1.3773 N.3     
  10 C10           -1.1681    -0.8969     0.0062 C.2     
  11 C11            1.2872     1.8317    -0.0004 C.2     
  12 S12           -0.9494    -2.5948    -0.0036 S.2     
  13 N13           -2.4118    -0.3777     0.0176 N.am    
  14 C14            1.7393     3.2251     0.0076 C.2     
  15 O15            0.9253     4.1284     0.0251 O.2     
  16 O16            3.0585     3.5061    -0.0046 O.3     
  17 C17            3.4338     4.9088     0.0043 C.3     
  18 C18            4.9361     5.0269    -0.0114 C.ar    
  19 C19            5.6117     5.0923    -1.2156 C.ar    
  20 C20            6.9897     5.2007    -1.2300 C.ar    
  21 C21            7.6921     5.2441    -0.0402 C.ar    
  22 C22            7.0164     5.1797     1.1640 C.ar    
  23 C23            5.6380     5.0757     1.1785 C.ar    
  24 H24           -0.8944     2.0408     0.0176 H       
  25 H25            5.1178    -0.5935    -0.2945 H       
  26 H26            3.6464    -2.3338    -1.1295 H       
  27 H27            1.3362    -2.4426    -0.6132 H       
  28 H28            2.4603    -3.1753     1.4057 H       
  29 H29            2.4846    -1.6138     1.9776 H       
  30 H30           -2.5357     0.5843     0.0231 H       
  31 H31           -3.1830    -0.9661     0.0203 H       
  32 H32            3.0214     5.4008    -0.8765 H       
  33 H33            3.0413     5.3842     0.9032 H       
  34 H34            5.0629     5.0584    -2.1452 H       
  35 H35            7.5176     5.2511    -2.1709 H       
  36 H36            8.7688     5.3281    -0.0515 H       
  37 H37            7.5652     5.2133     2.0936 H       
  38 H38            5.1098     5.0291     2.1193 H       
@<TRIPOS>BOND
   1    1    4 1
   2    1   11 2
   3    1   24 1
   4    2    3 1
   5    2    5 1
   6    2   11 1
   7    3    4 2
   8    3    8 1
   9    4   10 1
  10    5    6 2
  11    6    7 1
  12    6   25 1
  13    7    8 1
  14    7   26 1
  15    8    9 1
  16    8   27 1
  17    9   28 1
  18    9   29 1
  19   10   12 2
  20   10   13 am
  21   11   14 1
  22   13   30 1
  23   13   31 1
  24   14   15 2
  25   14   16 1
  26   16   17 1
  27   17   18 1
  28   17   32 1
  29   17   33 1
  30   18   19 ar
  31   18   23 ar
  32   19   20 ar
  33   19   34 1
  34   20   21 ar
  35   20   35 1
  36   21   22 ar
  37   21   36 1
  38   22   23 ar
  39   22   37 1
  40   23   38 1

#	End of record

