#	Name: ASD00990129
#	Creating user name:	WinNT
#	Creation time:	15. 06. 2019 18:54

#	Modifying user name:	WinNT
#	Modification time:	15. 06. 2019 18:54

#	Program:	/corina/corina34_cracker 3.40 0067  02.08.2006

@<TRIPOS>MOLECULE
ASD00990129
  66   70    0    0    0
SMALL
NO_CHARGES


@<TRIPOS>ATOM
   1 Cl1            0.0021    -0.0041     0.0020 Cl      
   2 C2            -0.0215     1.7317     0.0116 C.ar    
   3 C3            -1.2293     2.4069     0.0325 C.ar    
   4 C4            -1.2519     3.7894     0.0402 C.ar    
   5 C5            -0.0687     4.5018     0.0269 C.ar    
   6 C6             1.1461     3.8287     0.0064 C.ar    
   7 N7             2.3446     4.5472    -0.0066 N.3     
   8 C8             2.4677     5.3440    -1.2352 C.3     
   9 C9             3.8249     6.0514    -1.2475 C.3     
  10 N10            3.9406     6.9042    -0.0563 N.3     
  11 C11            5.2005     7.6595    -0.0699 C.3     
  12 C12            5.4032     8.3377     1.2865 C.3     
  13 C13            6.7155     9.1243     1.2723 C.3     
  14 H14            7.5336     8.4612     0.9913 H       
  15 C15            6.6143    10.2668     0.2597 C.3     
  16 C16            7.9265    11.0534     0.2455 C.3     
  17 C17            8.1915    11.6285     1.6383 C.3     
  18 H18            7.3734    12.2916     1.9193 H       
  19 C19            8.2927    10.4860     2.6510 C.3     
  20 C20            6.9805     9.6994     2.6652 C.3     
  21 N21            9.4480    12.3817     1.6247 N.am    
  22 C22            9.6528    13.3669     2.5213 C.2     
  23 O23            8.7943    13.6307     3.3418 O.2     
  24 C24           10.9141    14.1230     2.5077 C.2     
  25 C25           11.2379    15.1298     3.3604 C.2     
  26 C26           12.5317    15.5890     3.0138 C.ar    
  27 C27           13.3682    16.5874     3.5289 C.ar    
  28 C28           14.5939    16.8020     2.9683 C.ar    
  29 C29           15.0217    16.0391     1.8893 C.ar    
  30 C30           14.2176    15.0516     1.3651 C.ar    
  31 C31           12.9635    14.8134     1.9198 C.ar    
  32 N32           11.9607    13.9186     1.6295 N.pl3   
  33 H33           11.9835    13.2547     0.9226 H       
  34 C34            3.8175     6.1074     1.1724 C.3     
  35 C35            2.4603     5.4000     1.1846 C.3     
  36 C36            1.1671     2.4392     0.0040 C.ar    
  37 Cl37           2.6826     1.5927    -0.0156 Cl      
  38 H38           -2.1562     1.8527     0.0425 H       
  39 H39           -2.1964     4.3131     0.0562 H       
  40 H40           -0.0880     5.5816     0.0322 H       
  41 H41            2.3914     4.6886    -2.1029 H       
  42 H42            1.6703     6.0864    -1.2686 H       
  43 H43            4.6224     5.3084    -1.2416 H       
  44 H44            3.9066     6.6659    -2.1440 H       
  45 H45            6.0298     6.9792    -0.2636 H       
  46 H46            5.1615     8.4171    -0.8527 H       
  47 H47            4.5739     9.0180     1.4802 H       
  48 H48            5.4422     7.5802     2.0693 H       
  49 H49            6.4255     9.8571    -0.7326 H       
  50 H50            5.7961    10.9300     0.5406 H       
  51 H51            8.7446    10.3902    -0.0355 H       
  52 H52            7.8544    11.8673    -0.4760 H       
  53 H53            9.1108     9.8228     2.3700 H       
  54 H54            8.4815    10.8957     3.6432 H       
  55 H55            6.1623    10.3625     2.9461 H       
  56 H56            7.0525     8.8855     3.3866 H       
  57 H57           10.1325    12.1713     0.9704 H       
  58 H58           10.6195    15.5115     4.1594 H       
  59 H59           13.0440    17.1861     4.3672 H       
  60 H60           15.2371    17.5725     3.3672 H       
  61 H61           15.9942    16.2223     1.4570 H       
  62 H62           14.5590    14.4639     0.5258 H       
  63 H63            4.6149     5.3650     1.2057 H       
  64 H64            3.8938     6.7628     2.0400 H       
  65 H65            1.6629     6.1430     1.1787 H       
  66 H66            2.3786     4.7855     2.0811 H       
@<TRIPOS>BOND
   1    1    2 1
   2    2   36 ar
   3    2    3 ar
   4    3    4 ar
   5    3   38 1
   6    4    5 ar
   7    4   39 1
   8    5    6 ar
   9    5   40 1
  10    6    7 1
  11    6   36 ar
  12    7   35 1
  13    7    8 1
  14    8    9 1
  15    8   41 1
  16    8   42 1
  17    9   10 1
  18    9   43 1
  19    9   44 1
  20   10   11 1
  21   10   34 1
  22   11   12 1
  23   11   45 1
  24   11   46 1
  25   12   13 1
  26   12   47 1
  27   12   48 1
  28   13   14 1
  29   13   20 1
  30   13   15 1
  31   15   16 1
  32   15   49 1
  33   15   50 1
  34   16   17 1
  35   16   51 1
  36   16   52 1
  37   17   18 1
  38   17   19 1
  39   17   21 1
  40   19   20 1
  41   19   53 1
  42   19   54 1
  43   20   55 1
  44   20   56 1
  45   21   22 am
  46   21   57 1
  47   22   23 2
  48   22   24 1
  49   24   32 1
  50   24   25 2
  51   25   26 1
  52   25   58 1
  53   26   31 ar
  54   26   27 ar
  55   27   28 ar
  56   27   59 1
  57   28   29 ar
  58   28   60 1
  59   29   30 ar
  60   29   61 1
  61   30   31 ar
  62   30   62 1
  63   31   32 1
  64   32   33 1
  65   34   35 1
  66   34   63 1
  67   34   64 1
  68   35   65 1
  69   35   66 1
  70   36   37 1

#	End of record

