#	Name: ASD01208744
#	Creating user name:	WinNT
#	Creation time:	15. 06. 2019 19:10

#	Modifying user name:	WinNT
#	Modification time:	15. 06. 2019 19:10

#	Program:	/corina/corina34_cracker 3.40 0067  02.08.2006

@<TRIPOS>MOLECULE
ASD01208744
  56   60    0    0    0
SMALL
NO_CHARGES


@<TRIPOS>ATOM
   1 C1            -0.5150     1.4616     1.4807 C.2     
   2 C2            -0.3542     0.1499     0.8182 C.ar    
   3 C3             0.8822    -0.2182     0.2856 C.ar    
   4 C4             1.0286    -1.4481    -0.3338 C.ar    
   5 C5            -0.0517    -2.3139    -0.4257 C.ar    
   6 C6            -1.2826    -1.9521     0.1024 C.ar    
   7 C7            -1.4364    -0.7259     0.7288 C.ar    
   8 O8             0.4304     2.2214     1.5621 O.2     
   9 N9            -1.7112     1.8174     1.9895 N.am    
  10 S10           -3.3171     3.6281     3.2991 S.3     
  11 C11           -1.8623     3.0499     2.6119 C.2     
  12 N12           -0.9207     3.9292     2.7564 N.2     
  13 C13           -1.2403     5.0507     3.3747 C.2     
  14 C14           -2.5123     5.1224     3.7716 C.2     
  15 O15           -2.3376    -2.8036     0.0094 O.3     
  16 C16           -3.1556    -2.6903    -1.0698 C.ar    
  17 C17           -2.8420    -1.8029    -2.0861 C.ar    
  18 C18           -3.6841    -1.6902    -3.1920 C.ar    
  19 C19           -4.8377    -2.4727    -3.2674 C.ar    
  20 C20           -5.1408    -3.3536    -2.2495 C.ar    
  21 C21           -4.3024    -3.4683    -1.1560 C.ar    
  22 O22           -4.0764    -0.5348    -5.4008 O.3     
  23 C23           -3.3565    -0.7449    -4.2806 C.2     
  24 N24           -2.3109     0.0462    -4.3362 N.2     
  25 N25           -2.3518     0.7274    -5.4269 N.2     
  26 C26           -3.4164     0.4006    -6.1051 C.2     
  27 C27           -3.8316     0.9686    -7.4377 C.3     
  28 C28           -4.0852     2.4755    -7.5153 C.3     
  29 C29           -2.8341     1.8761    -8.1605 C.3     
  30 O30            2.2322    -1.8074    -0.8528 O.3     
  31 C31            2.3124    -3.0901    -1.4776 C.3     
  32 C32            3.7335    -3.3162    -1.9974 C.3     
  33 C33            3.8181    -4.6689    -2.6563 C.2     
  34 C34            4.2461    -4.7708    -3.8903 C.2     
  35 H35            1.7234     0.4554     0.3560 H       
  36 H36            0.0658    -3.2721    -0.9100 H       
  37 H37           -2.3937    -0.4468     1.1437 H       
  38 H38           -2.4666     1.2128     1.9210 H       
  39 H39           -0.5297     5.8458     3.5460 H       
  40 H40           -2.9687     5.9514     4.2920 H       
  41 H41           -1.9484    -1.1999    -2.0221 H       
  42 H42           -5.4928    -2.3884    -4.1218 H       
  43 H43           -6.0336    -3.9584    -2.3091 H       
  44 H44           -4.5425    -4.1624    -0.3642 H       
  45 H45           -4.4583     0.3206    -8.0503 H       
  46 H46           -4.8786     2.8187    -8.1792 H       
  47 H47           -3.9518     3.0559    -6.6025 H       
  48 H48           -1.8776     2.0623    -7.6721 H       
  49 H49           -2.8044     1.8251    -9.2489 H       
  50 H50            2.0637    -3.8641    -0.7515 H       
  51 H51            1.6099    -3.1334    -2.3098 H       
  52 H52            3.9822    -2.5422    -2.7235 H       
  53 H53            4.4361    -3.2729    -1.1652 H       
  54 H54            3.5259    -5.5543    -2.1113 H       
  55 H55            4.5383    -3.8854    -4.4353 H       
  56 H56            4.3067    -5.7402    -4.3625 H       
@<TRIPOS>BOND
   1    1    2 1
   2    1    8 2
   3    1    9 am
   4    2    3 ar
   5    2    7 ar
   6    3    4 ar
   7    3   35 1
   8    4    5 ar
   9    4   30 1
  10    5    6 ar
  11    5   36 1
  12    6    7 ar
  13    6   15 1
  14    7   37 1
  15    9   11 1
  16    9   38 1
  17   10   11 1
  18   10   14 1
  19   11   12 2
  20   12   13 1
  21   13   14 2
  22   13   39 1
  23   14   40 1
  24   15   16 1
  25   16   17 ar
  26   16   21 ar
  27   17   18 ar
  28   17   41 1
  29   18   19 ar
  30   18   23 1
  31   19   20 ar
  32   19   42 1
  33   20   21 ar
  34   20   43 1
  35   21   44 1
  36   22   23 1
  37   22   26 1
  38   23   24 2
  39   24   25 1
  40   25   26 2
  41   26   27 1
  42   27   28 1
  43   27   29 1
  44   27   45 1
  45   28   29 1
  46   28   46 1
  47   28   47 1
  48   29   48 1
  49   29   49 1
  50   30   31 1
  51   31   32 1
  52   31   50 1
  53   31   51 1
  54   32   33 1
  55   32   52 1
  56   32   53 1
  57   33   34 2
  58   33   54 1
  59   34   55 1
  60   34   56 1

#	End of record

