#	Name: ASD00170145
#	Creating user name:	WinNT
#	Creation time:	15. 06. 2019 18:31

#	Modifying user name:	WinNT
#	Modification time:	15. 06. 2019 18:31

#	Program:	/corina/corina34_cracker 3.40 0067  02.08.2006

@<TRIPOS>MOLECULE
ASD00170145
  23   24    0    0    0
SMALL
NO_CHARGES


@<TRIPOS>ATOM
   1 C1             0.0042     1.3223     0.1982 C.2     
   2 C2             0.0143     0.0004     0.1265 C.2     
   3 C3             1.3489    -0.5570     0.0607 C.2     
   4 C4             2.3288     0.4084     0.0866 C.2     
   5 S5             1.6374     1.9629     0.1890 S.3     
   6 N6             3.6842     0.1533     0.0374 N.pl3   
   7 C7             1.6254    -1.9907    -0.0234 C.2     
   8 C8             0.5189    -2.9655     0.0939 C.ar    
   9 O9             2.7664    -2.3820    -0.1899 O.2     
  10 C10            0.5785    -4.1794    -0.5925 C.ar    
  11 C11           -0.4565    -5.0843    -0.4784 C.ar    
  12 C12           -1.5522    -4.7905     0.3138 C.ar    
  13 C13           -1.6177    -3.5888     0.9965 C.ar    
  14 C14           -0.5865    -2.6779     0.8960 C.ar    
  15 H15           -0.8899     1.9258     0.2506 H       
  16 H16           -0.8824    -0.6014     0.1186 H       
  17 H17            4.0039    -0.7607    -0.0198 H       
  18 H18            4.3171     0.8880     0.0601 H       
  19 H19            1.4328    -4.4096    -1.2117 H       
  20 H20           -0.4117    -6.0239    -1.0090 H       
  21 H21           -2.3600    -5.5022     0.3995 H       
  22 H22           -2.4758    -3.3654     1.6130 H       
  23 H23           -0.6388    -1.7402     1.4293 H       
@<TRIPOS>BOND
   1    1    2 2
   2    1    5 1
   3    1   15 1
   4    2    3 1
   5    2   16 1
   6    3    4 2
   7    3    7 1
   8    4    5 1
   9    4    6 1
  10    6   17 1
  11    6   18 1
  12    7    8 1
  13    7    9 2
  14    8   10 ar
  15    8   14 ar
  16   10   11 ar
  17   10   19 1
  18   11   12 ar
  19   11   20 1
  20   12   13 ar
  21   12   21 1
  22   13   14 ar
  23   13   22 1
  24   14   23 1

#	End of record

