#	Name: ASD01884246
#	Creating user name:	WinNT
#	Creation time:	15. 06. 2019 19:47

#	Modifying user name:	WinNT
#	Modification time:	15. 06. 2019 19:47

#	Program:	/corina/corina34_cracker 3.40 0067  02.08.2006

@<TRIPOS>MOLECULE
ASD01884246
  51   54    0    0    0
SMALL
NO_CHARGES


@<TRIPOS>ATOM
   1 C1            -0.0169     1.3920     0.0097 C.ar    
   2 C2             0.0021    -0.0041     0.0020 C.ar    
   3 C3            -1.1683    -0.7205     0.0094 C.ar    
   4 C4            -2.4132    -0.0698     0.0252 C.ar    
   5 C5            -2.4165     1.3273     0.0332 C.ar    
   6 C6            -1.2432     2.0548     0.0308 C.ar    
   7 N7            -3.6703    -0.6444     0.0347 N.am    
   8 C8            -4.7412     0.1548     0.0501 C.2     
   9 S9            -4.1177     1.8129     0.0532 S.3     
  10 C10            1.2502     2.1592     0.0017 C.ar    
  11 O11           -5.9092    -0.1874     0.0596 O.2     
  12 C12           -3.8257    -2.1011     0.0275 C.3     
  13 C13           -3.8644    -2.6092     1.4457 C.ar    
  14 C14            2.2694     1.8523     0.9219 C.ar    
  15 C15            3.4579     2.5841     0.9024 C.ar    
  16 C16            3.6264     3.5999    -0.0149 C.ar    
  17 C17            2.6220     3.9011    -0.9204 C.ar    
  18 C18            1.4423     3.1849    -0.9202 C.ar    
  19 C19            2.0885     0.7966     1.8723 C.1     
  20 N20            1.9449    -0.0409     2.6263 N.1     
  21 C21           -5.0725    -2.7153     2.1092 C.ar    
  22 C22           -5.1079    -3.1814     3.4101 C.ar    
  23 C23           -3.9354    -3.5417     4.0474 C.ar    
  24 C24           -2.7274    -3.4364     3.3837 C.ar    
  25 C25           -2.6924    -2.9745     2.0812 C.ar    
  26 C26           -3.9739    -4.0488     5.4660 C.3     
  27 C27           -4.8342    -5.3122     5.5328 C.3     
  28 C28           -2.5528    -4.3743     5.9301 C.3     
  29 C29           -4.5739    -2.9746     6.3755 C.3     
  30 H30            0.9477    -0.5256    -0.0102 H       
  31 H31           -1.1319    -1.7999     0.0025 H       
  32 H32           -1.2753     3.1343     0.0372 H       
  33 H33           -4.7544    -2.3650    -0.4785 H       
  34 H34           -2.9846    -2.5536    -0.4978 H       
  35 H35            4.2450     2.3550     1.6055 H       
  36 H36            4.5470     4.1645    -0.0273 H       
  37 H37            2.7649     4.6990    -1.6341 H       
  38 H38            0.6644     3.4258    -1.6296 H       
  39 H39           -5.9885    -2.4338     1.6112 H       
  40 H40           -6.0517    -3.2636     3.9287 H       
  41 H41           -1.8113    -3.7176     3.8817 H       
  42 H42           -1.7486    -2.8922     1.5626 H       
  43 H43           -4.4068    -6.0775     4.8849 H       
  44 H44           -4.8621    -5.6790     6.5588 H       
  45 H45           -5.8466    -5.0803     5.2022 H       
  46 H46           -1.9399    -3.4742     5.8825 H       
  47 H47           -2.5807    -4.7411     6.9562 H       
  48 H48           -2.1254    -5.1395     5.2822 H       
  49 H49           -5.5864    -2.7427     6.0449 H       
  50 H50           -4.6018    -3.3414     7.4015 H       
  51 H51           -3.9611    -2.0745     6.3279 H       
@<TRIPOS>BOND
   1    1    2 ar
   2    1   10 1
   3    1    6 ar
   4    2    3 ar
   5    2   30 1
   6    3    4 ar
   7    3   31 1
   8    4    5 ar
   9    4    7 1
  10    5    6 ar
  11    5    9 1
  12    6   32 1
  13    7    8 am
  14    7   12 1
  15    8    9 1
  16    8   11 2
  17   10   14 ar
  18   10   18 ar
  19   12   13 1
  20   12   33 1
  21   12   34 1
  22   13   21 ar
  23   13   25 ar
  24   14   15 ar
  25   14   19 1
  26   15   16 ar
  27   15   35 1
  28   16   17 ar
  29   16   36 1
  30   17   18 ar
  31   17   37 1
  32   18   38 1
  33   19   20 3
  34   21   22 ar
  35   21   39 1
  36   22   23 ar
  37   22   40 1
  38   23   24 ar
  39   23   26 1
  40   24   25 ar
  41   24   41 1
  42   25   42 1
  43   26   27 1
  44   26   28 1
  45   26   29 1
  46   27   43 1
  47   27   44 1
  48   27   45 1
  49   28   46 1
  50   28   47 1
  51   28   48 1
  52   29   49 1
  53   29   50 1
  54   29   51 1

#	End of record

