#	Name: ASD03082008
#	Creating user name:	WinNT
#	Creation time:	15. 06. 2019 20:27

#	Modifying user name:	WinNT
#	Modification time:	15. 06. 2019 20:27

#	Program:	/corina/corina34_cracker 3.40 0067  02.08.2006

@<TRIPOS>MOLECULE
ASD03082008
  43   45    0    0    0
SMALL
NO_CHARGES


@<TRIPOS>ATOM
   1 C1            -0.0065     1.4552    -0.0116 C.3     
   2 N2             0.0052    -0.0137    -0.0033 N.3     
   3 C3             0.6176    -0.5486    -1.2267 C.3     
   4 C4             2.0850    -0.1118    -1.2925 C.3     
   5 N5             2.1434     1.3515    -1.1563 N.am    
   6 C6             1.4352     1.9742    -0.0276 C.3     
   7 S7             2.9847     2.2735    -2.2446 S.o2    
   8 C8            -1.3494    -0.5499     0.1852 C.3     
   9 C9            -2.2071    -0.1744    -0.9957 C.2     
  10 N10           -3.4632    -0.6527    -1.0954 N.am    
  11 O11           -1.7669     0.5581    -1.8564 O.2     
  12 C12           -4.2609    -0.3035    -2.1937 C.2     
  13 O13            3.9579     1.4179    -2.8278 O.2     
  14 C14            1.8663     2.7074    -3.5352 C.ar    
  15 O15            3.3142     3.4832    -1.5757 O.2     
  16 C16            1.1194     3.8670    -3.4412 C.ar    
  17 C17            0.2423     4.2085    -4.4530 C.ar    
  18 C18            0.1116     3.3888    -5.5612 C.ar    
  19 C19            0.8601     2.2276    -5.6543 C.ar    
  20 C20            1.7405     1.8909    -4.6437 C.ar    
  21 F21           -0.7460     3.7214    -6.5508 F       
  22 N22           -5.4936    -0.6989    -2.4077 N.2     
  23 N23           -5.9327    -0.1290    -3.6096 N.pl3   
  24 C24           -4.9269     0.6195    -4.1095 C.2     
  25 C25           -3.8827     0.5355    -3.2541 C.2     
  26 H26           -0.5306     1.8098    -0.8992 H       
  27 H27           -0.5145     1.8200     0.8812 H       
  28 H28            0.5623    -1.6371    -1.2152 H       
  29 H29            0.0849    -0.1661    -2.0974 H       
  30 H30            2.6425    -0.5777    -0.4800 H       
  31 H31            2.5125    -0.4077    -2.2505 H       
  32 H32            1.4332     3.0574    -0.1493 H       
  33 H33            1.9303     1.7088     0.9066 H       
  34 H34           -1.3019    -1.6356     0.2692 H       
  35 H35           -1.7816    -0.1336     1.0951 H       
  36 H36           -3.8152    -1.2385    -0.4071 H       
  37 H37            1.2213     4.5060    -2.5766 H       
  38 H38           -0.3413     5.1142    -4.3792 H       
  39 H39            0.7589     1.5875    -6.5182 H       
  40 H40            2.3244     0.9852    -4.7160 H       
  41 H41           -6.8066    -0.2512    -4.0124 H       
  42 H42           -4.9528     1.1879    -5.0274 H       
  43 H43           -2.9255     1.0222    -3.3696 H       
@<TRIPOS>BOND
   1    1    2 1
   2    1    6 1
   3    1   26 1
   4    1   27 1
   5    2    3 1
   6    2    8 1
   7    3    4 1
   8    3   28 1
   9    3   29 1
  10    4    5 1
  11    4   30 1
  12    4   31 1
  13    5    6 1
  14    5    7 am
  15    6   32 1
  16    6   33 1
  17    7   13 2
  18    7   14 1
  19    7   15 2
  20    8    9 1
  21    8   34 1
  22    8   35 1
  23    9   10 am
  24    9   11 2
  25   10   12 1
  26   10   36 1
  27   12   22 2
  28   12   25 1
  29   14   16 ar
  30   14   20 ar
  31   16   17 ar
  32   16   37 1
  33   17   18 ar
  34   17   38 1
  35   18   19 ar
  36   18   21 1
  37   19   20 ar
  38   19   39 1
  39   20   40 1
  40   22   23 1
  41   23   24 1
  42   23   41 1
  43   24   25 2
  44   24   42 1
  45   25   43 1

#	End of record

