#	Name: ASD02500711
#	Creating user name:	WinNT
#	Creation time:	15. 06. 2019 20:23

#	Modifying user name:	WinNT
#	Modification time:	15. 06. 2019 20:23

#	Program:	/corina/corina34_cracker 3.40 0067  02.08.2006

@<TRIPOS>MOLECULE
ASD02500711
  72   77    0    0    0
SMALL
NO_CHARGES


@<TRIPOS>ATOM
   1 N1            -4.6559     5.2161     0.0219 N.ar    
   2 C2            -5.5923     5.7641    -0.7137 C.ar    
   3 C3            -6.9449     5.5893    -0.4287 C.ar    
   4 C4            -7.3235     4.8295     0.6412 C.ar    
   5 C5            -6.3152     4.2421     1.4287 C.ar    
   6 C6            -6.6275     3.4489     2.5441 C.ar    
   7 C7            -5.6233     2.8985     3.2808 C.ar    
   8 C8            -4.2888     3.1123     2.9428 C.ar    
   9 C9            -3.9502     3.8758     1.8681 C.ar    
  10 C10           -4.9584     4.4611     1.0829 C.ar    
  11 S11           -2.2543     4.1305     1.4633 S.o2    
  12 O12           -2.0974     5.5270     1.2527 O.2     
  13 O13           -1.4993     3.3990     2.4195 O.2     
  14 N14           -1.9851     3.4037    -0.0001 N.am    
  15 C15           -2.1788     2.0340    -0.1423 C.ar    
  16 C16           -2.9044     1.5457    -1.2222 C.ar    
  17 C17           -3.0968     0.1830    -1.3640 C.ar    
  18 C18           -2.5560    -0.6976    -0.4134 C.ar    
  19 C19           -1.8281    -0.1905     0.6678 C.ar    
  20 C20           -1.6397     1.1555     0.7954 C.ar    
  21 C21           -2.7549    -2.1495    -0.5541 C.2     
  22 O22           -3.8759    -2.5985    -0.6996 O.2     
  23 N23           -1.6948    -2.9812    -0.5216 N.am    
  24 C24           -1.8600    -4.4242    -0.7533 C.3     
  25 C25           -0.8594    -4.8624    -1.8280 C.3     
  26 N26            0.4930    -4.4477    -1.4315 N.3     
  27 C27            0.5988    -2.9850    -1.3479 C.3     
  28 C28           -0.3412    -2.4690    -0.2596 C.3     
  29 C29            1.5017    -4.9970    -2.3474 C.3     
  30 C30            2.8843    -4.4693    -1.9590 C.3     
  31 C31            3.3347    -4.6674    -0.5103 C.3     
  32 C32            3.9663    -5.4993    -1.6283 C.3     
  33 C33            3.3165    -3.2047    -2.6554 C.ar    
  34 C34            2.9349    -2.9708    -3.9633 C.ar    
  35 C35            3.3314    -1.8108    -4.6021 C.ar    
  36 C36            4.1090    -0.8844    -3.9328 C.ar    
  37 C37            4.4899    -1.1178    -2.6246 C.ar    
  38 C38            4.0898    -2.2758    -1.9844 C.ar    
  39 O39           -3.8046    -0.2999    -2.4157 O.3     
  40 C40           -4.3246     0.6563    -3.3417 C.3     
  41 H41           -5.3077     6.3676    -1.5630 H       
  42 H42           -7.6934     6.0544    -1.0532 H       
  43 H43           -8.3673     4.6837     0.8768 H       
  44 H44           -7.6583     3.2765     2.8164 H       
  45 H45           -5.8645     2.2884     4.1387 H       
  46 H46           -3.5104     2.6654     3.5433 H       
  47 H47           -1.6924     3.9334    -0.7581 H       
  48 H48           -3.3179     2.2289    -1.9494 H       
  49 H49           -1.4108    -0.8652     1.4007 H       
  50 H50           -1.0730     1.5419     1.6298 H       
  51 H51           -1.6660    -4.9681     0.1712 H       
  52 H52           -2.8754    -4.6264    -1.0942 H       
  53 H53           -0.8910    -5.9467    -1.9339 H       
  54 H54           -1.1189    -4.3960    -2.7784 H       
  55 H55            1.6248    -2.7078    -1.1056 H       
  56 H56            0.3190    -2.5447    -2.3050 H       
  57 H57           -0.3529    -1.3791    -0.2742 H       
  58 H58            0.0016    -2.8213     0.7133 H       
  59 H59            1.4968    -6.0851    -2.2830 H       
  60 H60            1.2700    -4.6924    -3.3680 H       
  61 H61            3.9440    -3.8831    -0.0610 H       
  62 H62            2.6461    -5.1736     0.1661 H       
  63 H63            3.6931    -6.5529    -1.6874 H       
  64 H64            4.9910    -5.2624    -1.9145 H       
  65 H65            2.3274    -3.6946    -4.4862 H       
  66 H66            3.0339    -1.6284    -5.6241 H       
  67 H67            4.4194     0.0216    -4.4321 H       
  68 H68            5.0977    -0.3942    -2.1018 H       
  69 H69            4.3842    -2.4565    -0.9611 H       
  70 H70           -4.8680     0.1385    -4.1320 H       
  71 H71           -4.9997     1.3358    -2.8215 H       
  72 H72           -3.5026     1.2240    -3.7777 H       
@<TRIPOS>BOND
   1    1    2 ar
   2    1   10 ar
   3    2    3 ar
   4    2   41 1
   5    3    4 ar
   6    3   42 1
   7    4    5 ar
   8    4   43 1
   9    5    6 ar
  10    5   10 ar
  11    6    7 ar
  12    6   44 1
  13    7    8 ar
  14    7   45 1
  15    8    9 ar
  16    8   46 1
  17    9   10 ar
  18    9   11 1
  19   11   12 2
  20   11   13 2
  21   11   14 am
  22   14   15 1
  23   14   47 1
  24   15   16 ar
  25   15   20 ar
  26   16   17 ar
  27   16   48 1
  28   17   18 ar
  29   17   39 1
  30   18   19 ar
  31   18   21 1
  32   19   20 ar
  33   19   49 1
  34   20   50 1
  35   21   22 2
  36   21   23 am
  37   23   24 1
  38   23   28 1
  39   24   25 1
  40   24   51 1
  41   24   52 1
  42   25   26 1
  43   25   53 1
  44   25   54 1
  45   26   27 1
  46   26   29 1
  47   27   28 1
  48   27   55 1
  49   27   56 1
  50   28   57 1
  51   28   58 1
  52   29   30 1
  53   29   59 1
  54   29   60 1
  55   30   31 1
  56   30   32 1
  57   30   33 1
  58   31   32 1
  59   31   61 1
  60   31   62 1
  61   32   63 1
  62   32   64 1
  63   33   34 ar
  64   33   38 ar
  65   34   35 ar
  66   34   65 1
  67   35   36 ar
  68   35   66 1
  69   36   37 ar
  70   36   67 1
  71   37   38 ar
  72   37   68 1
  73   38   69 1
  74   39   40 1
  75   40   70 1
  76   40   71 1
  77   40   72 1

#	End of record

