#	Name: ASD00731054
#	Creating user name:	WinNT
#	Creation time:	15. 06. 2019 18:37

#	Modifying user name:	WinNT
#	Modification time:	15. 06. 2019 18:37

#	Program:	/corina/corina34_cracker 3.40 0067  02.08.2006

@<TRIPOS>MOLECULE
ASD00731054
 249  249    0    0    0
SMALL
NO_CHARGES


@<TRIPOS>ATOM
   1 C1            -4.3753     4.7270    -7.9240 C.2     
   2 O2            -4.0914     3.5480    -7.9106 O.2     
   3 N3            -2.1083     5.0595    -8.7236 N.am    
   4 C4            -3.3534     5.7431    -8.3650 C.3     
   5 C5            -3.8844     6.5062    -9.5802 C.3     
   6 O6            -4.2444     5.5781   -10.6054 O.3     
   7 C7            -7.9855     4.6929    -7.3512 C.2     
   8 O8            -8.1264     5.8032    -7.8183 O.2     
   9 N9            -5.6064     5.1281    -7.5499 N.am    
  10 C10           -6.6017     4.1398    -7.1269 C.3     
  11 C11           -6.4116     3.8282    -5.6411 C.3     
  12 C12           -5.0552     3.1520    -5.4313 C.3     
  13 C13           -4.8680     2.8451    -3.9678 C.2     
  14 O14           -5.7308     3.1372    -3.1740 O.2     
  15 O15           -3.7427     2.2472    -3.5461 O.3     
  16 C16          -11.3793     3.8204    -6.3100 C.2     
  17 O17          -11.0546     2.8079    -5.7265 O.2     
  18 N18           -9.0664     3.9536    -7.0326 N.am    
  19 C19          -10.4117     4.4912    -7.2506 C.3     
  20 C20          -10.8387     4.2265    -8.6957 C.3     
  21 C21           -9.8695     4.9268    -9.6503 C.3     
  22 O22          -10.8221     2.8199    -8.9473 O.3     
  23 C23          -14.9771     4.0057    -5.7311 C.2     
  24 O24          -15.1459     4.9380    -6.4882 O.2     
  25 N25          -12.6054     4.3455    -6.1172 N.am    
  26 C26          -13.5844     3.6359    -5.2898 C.3     
  27 C27          -13.3929     4.0285    -3.8235 C.3     
  28 C28          -14.3160     3.1824    -2.9443 C.3     
  29 C29          -13.8770     1.7180    -3.0050 C.3     
  30 C30          -13.7331     5.5093    -3.6433 C.3     
  31 C31          -18.3684     3.2079    -4.6242 C.2     
  32 O32          -17.9684     2.5880    -3.6616 O.2     
  33 N33          -16.0350     3.3003    -5.2843 N.am    
  34 C34          -17.3932     3.6977    -5.6635 C.3     
  35 C35          -17.7438     3.0847    -7.0208 C.3     
  36 C36          -16.8332     3.6769    -8.0983 C.3     
  37 C37          -17.1785     3.0732    -9.4352 C.2     
  38 O38          -18.0656     2.2503    -9.5180 O.2     
  39 N39          -16.5015     3.4477   -10.5388 N.am    
  40 C40          -21.9955     2.8241    -4.3787 C.2     
  41 O41          -22.1584     3.0832    -5.5523 O.2     
  42 N42          -19.6852     3.4589    -4.7644 N.am    
  43 C43          -20.6333     2.9828    -3.7541 C.3     
  44 C44          -20.7115     3.9962    -2.6104 C.3     
  45 C45          -19.3803     4.0640    -1.9074 C.ar    
  46 C46          -18.4207     4.9644    -2.3319 C.ar    
  47 C47          -17.1994     5.0282    -1.6893 C.ar    
  48 C48          -16.9363     4.1881    -0.6171 C.ar    
  49 O49          -15.7358     4.2492     0.0169 O.3     
  50 C50          -17.9010     3.2858    -0.1928 C.ar    
  51 C51          -19.1226     3.2296    -0.8354 C.ar    
  52 C52          -25.4155     2.3592    -3.1743 C.2     
  53 O53          -25.0952     2.5537    -2.0209 O.2     
  54 N54          -23.0328     2.3943    -3.6332 N.am    
  55 C55          -24.3571     2.2401    -4.2404 C.3     
  56 C56          -24.4560     0.8661    -4.9061 C.3     
  57 C57          -23.4657     0.7907    -6.0700 C.3     
  58 C58          -23.5647    -0.5833    -6.7356 C.3     
  59 N59          -22.6165    -0.6555    -7.8501 N.pl3   
  60 C60          -22.5257    -1.8027    -8.6022 C.2     
  61 N61          -21.6821    -1.8669    -9.5938 N.2     
  62 N62          -23.3247    -2.8823    -8.3085 N.pl3   
  63 C63          -28.9881     1.6325    -2.9065 C.2     
  64 O64          -29.0108     1.0690    -3.9803 O.2     
  65 N65          -26.7180     2.2495    -3.5027 N.am    
  66 C66          -27.7470     2.3652    -2.4663 C.3     
  67 C67          -28.0795     3.8415    -2.2404 C.3     
  68 C68          -26.8527     4.5598    -1.6748 C.3     
  69 C69          -27.1851     6.0360    -1.4488 C.3     
  70 C70          -25.9583     6.7543    -0.8832 C.3     
  71 N71          -26.2776     8.1717    -0.6663 N.3     
  72 C72          -32.4816     1.4777    -1.8415 C.2     
  73 O73          -32.3443     2.4001    -1.0661 O.2     
  74 N74          -30.0727     1.6033    -2.1071 N.am    
  75 C75          -31.2792     0.8910    -2.5350 C.3     
  76 C76          -31.1530    -0.5899    -2.1716 C.3     
  77 C77          -35.9708     0.5123    -1.3348 C.2     
  78 O78          -35.9063    -0.4870    -2.0191 O.2     
  79 N79          -33.7096     0.9775    -2.0830 N.am    
  80 C80          -34.8785     1.5479    -1.4088 C.3     
  81 C81          -35.3787     2.7615    -2.1947 C.3     
  82 C82          -34.3274     3.8719    -2.1421 C.3     
  83 C83          -35.6244     2.3604    -3.6506 C.3     
  84 C84          -39.0554    -0.2211    -1.4574 C.2     
  85 O85          -38.9525     0.6640    -2.2802 O.2     
  86 N86          -37.0192     0.6965    -0.5082 N.am    
  87 C87          -38.0297    -0.3540    -0.3614 C.3     
  88 C88          -38.7160    -0.2150     0.9990 C.3     
  89 C89          -37.6987    -0.4734     2.1122 C.3     
  90 C90          -38.3850    -0.3343     3.4726 C.3     
  91 C91          -37.3677    -0.5928     4.5858 C.3     
  92 N92          -38.0266    -0.4593     5.8919 N.3     
  93 C93          -42.3849    -1.5690    -2.1365 C.2     
  94 O94          -42.4701    -2.0626    -1.0370 O.2     
  95 N95          -40.0871    -1.0858    -1.5233 N.am    
  96 C96          -41.0842    -0.9567    -2.5888 C.3     
  97 C97          -40.5882    -1.6807    -3.8420 C.3     
  98 O98          -43.4486    -1.5660    -2.9552 O.3     
  99 C99           -0.9348     5.7193    -8.6600 C.2     
 100 O100          -0.9096     6.8790    -8.3059 O.2     
 101 C101          17.6797     6.7813   -10.5469 C.3     
 102 C102          16.3794     7.4953   -10.1724 C.3     
 103 C103          15.2035     6.5292   -10.3300 C.3     
 104 C104          13.9031     7.2431    -9.9555 C.3     
 105 C105          12.7272     6.2770   -10.1131 C.3     
 106 C106          11.4269     6.9909    -9.7387 C.3     
 107 C107          10.2510     6.0248    -9.8963 C.3     
 108 C108           8.9506     6.7387    -9.5218 C.3     
 109 C109           7.7748     5.7726    -9.6794 C.3     
 110 C110           6.4744     6.4866    -9.3049 C.3     
 111 C111           5.2985     5.5205    -9.4626 C.3     
 112 C112           3.9981     6.2344    -9.0881 C.3     
 113 C113           2.8223     5.2683    -9.2457 C.3     
 114 C114           1.5219     5.9822    -8.8712 C.3     
 115 C115           0.3460     5.0161    -9.0289 C.3     
 116 H116          -2.1284     4.1319    -9.0068 H       
 117 H117          -3.1624     6.4429    -7.5515 H       
 118 H118          -4.7610     7.0857    -9.2906 H       
 119 H119          -3.1116     7.1781    -9.9534 H       
 120 H120          -4.5900     5.9928   -11.4077 H       
 121 H121          -5.8334     6.0711    -7.5606 H       
 122 H122          -6.4768     3.2265    -7.7086 H       
 123 H123          -6.4482     4.7547    -5.0680 H       
 124 H124          -7.2058     3.1615    -5.3052 H       
 125 H125          -5.0186     2.2256    -6.0044 H       
 126 H126          -4.2610     3.8187    -5.7672 H       
 127 H127          -3.6680     2.0706    -2.5982 H       
 128 H128          -8.9537     3.0656    -6.6590 H       
 129 H129         -10.4085     5.5651    -7.0636 H       
 130 H130         -11.8460     4.6119    -8.8534 H       
 131 H131          -8.8870     4.4607    -9.5771 H       
 132 H132         -10.2384     4.8382   -10.6722 H       
 133 H133          -9.7928     5.9804    -9.3818 H       
 134 H134         -11.4147     2.3114    -8.3770 H       
 135 H135         -12.8398     5.1933    -6.5262 H       
 136 H136         -13.4418     2.5609    -5.3998 H       
 137 H137         -12.3564     3.8559    -3.5335 H       
 138 H138         -14.2613     3.5358    -1.9146 H       
 139 H139         -15.3411     3.2697    -3.3044 H       
 140 H140         -14.4666     1.1324    -2.2997 H       
 141 H141         -14.0305     1.3342    -4.0136 H       
 142 H142         -12.8210     1.6442    -2.7449 H       
 143 H143         -14.7935     5.6652    -3.8417 H       
 144 H144         -13.5063     5.8124    -2.6212 H       
 145 H145         -13.1419     6.1051    -4.3387 H       
 146 H146         -15.8972     2.5295    -4.7118 H       
 147 H147         -17.4486     4.7842    -5.7303 H       
 148 H148         -17.6026     2.0047    -6.9791 H       
 149 H149         -18.7835     3.3062    -7.2618 H       
 150 H150         -16.9743     4.7569    -8.1400 H       
 151 H151         -15.7935     3.4554    -7.8572 H       
 152 H152         -15.7920     4.1058   -10.4725 H       
 153 H153         -16.7238     3.0591   -11.3993 H       
 154 H154         -20.0052     3.9547    -5.5343 H       
 155 H155         -20.2976     2.0214    -3.3653 H       
 156 H156         -20.9609     4.9784    -3.0118 H       
 157 H157         -21.4807     3.6868    -1.9029 H       
 158 H158         -18.6259     5.6182    -3.1666 H       
 159 H159         -16.4499     5.7312    -2.0217 H       
 160 H160         -15.7122     4.8735     0.7551 H       
 161 H161         -17.6985     2.6306     0.6414 H       
 162 H162         -19.8756     2.5304    -0.5028 H       
 163 H163         -22.9025     2.1871    -2.6946 H       
 164 H164         -24.5063     3.0181    -4.9891 H       
 165 H165         -24.2193     0.0912    -4.1769 H       
 166 H166         -25.4686     0.7157    -5.2803 H       
 167 H167         -23.7024     1.5656    -6.7991 H       
 168 H168         -22.4531     0.9411    -5.6958 H       
 169 H169         -23.3280    -1.3582    -6.0065 H       
 170 H170         -24.5773    -0.7337    -7.1099 H       
 171 H171         -22.0527     0.1062    -8.0573 H       
 172 H172         -21.6180    -2.6763   -10.1244 H       
 173 H173         -23.9525    -2.8345    -7.5706 H       
 174 H174         -23.2606    -3.6917    -8.8392 H       
 175 H175         -26.9742     2.0939    -4.4252 H       
 176 H176         -27.3780     1.9297    -1.5377 H       
 177 H177         -28.3636     4.2991    -3.1880 H       
 178 H178         -28.9061     3.9239    -1.5347 H       
 179 H179         -26.5685     4.1022    -0.7272 H       
 180 H180         -26.0260     4.4774    -2.3804 H       
 181 H181         -27.4693     6.4936    -2.3964 H       
 182 H182         -28.0118     6.1184    -0.7432 H       
 183 H183         -25.6742     6.2968     0.0644 H       
 184 H184         -25.1317     6.6720    -1.5889 H       
 185 H185         -25.4826     8.6684    -0.2927 H       
 186 H186         -26.6059     8.6028    -1.5175 H       
 187 H187         -30.0545     2.0539    -1.2483 H       
 188 H188         -31.3970     0.9915    -3.6140 H       
 189 H189         -32.0507    -1.1199    -2.4901 H       
 190 H190         -30.2834    -1.0143    -2.6733 H       
 191 H191         -31.0352    -0.6905    -1.0927 H       
 192 H192         -33.8194     0.2397    -2.7031 H       
 193 H193         -34.6017     1.8567    -0.4007 H       
 194 H194         -36.3091     3.1209    -1.7549 H       
 195 H195         -33.3971     3.5125    -2.5818 H       
 196 H196         -34.6838     4.7365    -2.7020 H       
 197 H197         -34.1525     4.1577    -1.1049 H       
 198 H198         -36.4365     1.6347    -3.6955 H       
 199 H199         -35.8936     3.2433    -4.2303 H       
 200 H200         -34.7180     1.9173    -4.0633 H       
 201 H201         -37.1048     1.5247    -0.0106 H       
 202 H202         -37.5507    -1.3308    -0.4285 H       
 203 H203         -39.1186     0.7927     1.1015 H       
 204 H204         -39.5270    -0.9395     1.0725 H       
 205 H205         -37.2960    -1.4811     2.0097 H       
 206 H206         -36.8877     0.2512     2.0386 H       
 207 H207         -38.7876     0.6734     3.5751 H       
 208 H208         -39.1960    -1.0589     3.5461 H       
 209 H209         -36.9650    -1.6005     4.4833 H       
 210 H210         -36.5567     0.1318     4.5122 H       
 211 H211         -38.8225    -1.0756     5.9601 H       
 212 H212         -37.3751    -0.6254     6.6442 H       
 213 H213         -40.1694    -1.7937    -0.8652 H       
 214 H214         -41.2388     0.0982    -2.8158 H       
 215 H215         -41.3301    -1.5846    -4.6347 H       
 216 H216         -39.6475    -1.2378    -4.1691 H       
 217 H217         -40.4337    -2.7356    -3.6150 H       
 218 H218         -44.2609    -1.9703    -2.6209 H       
 219 H219          17.8246     5.9227    -9.8913 H       
 220 H220          17.6236     6.4431   -11.5815 H       
 221 H221          18.5174     7.4696   -10.4346 H       
 222 H222          16.4355     7.8335    -9.1377 H       
 223 H223          16.2345     8.3540   -10.8279 H       
 224 H224          15.1473     6.1910   -11.3647 H       
 225 H225          15.3483     5.6705    -9.6744 H       
 226 H226          13.9593     7.5813    -8.9208 H       
 227 H227          13.7583     8.1018   -10.6111 H       
 228 H228          12.6711     5.9388   -11.1478 H       
 229 H229          12.8721     5.4183    -9.4576 H       
 230 H230          11.4830     7.3291    -8.7040 H       
 231 H231          11.2820     7.8496   -10.3942 H       
 232 H232          10.1948     5.6866   -10.9310 H       
 233 H233          10.3959     5.1661    -9.2407 H       
 234 H234           9.0068     7.0770    -8.4871 H       
 235 H235           8.8058     7.5974   -10.1774 H       
 236 H236           7.7186     5.4344   -10.7141 H       
 237 H237           7.9196     4.9140    -9.0239 H       
 238 H238           6.5306     6.8248    -8.2703 H       
 239 H239           6.3295     7.3452    -9.9605 H       
 240 H240           5.2423     5.1822   -10.4973 H       
 241 H241           5.4434     4.6618    -8.8070 H       
 242 H242           4.0543     6.5726    -8.0534 H       
 243 H243           3.8533     7.0931    -9.7437 H       
 244 H244           2.7661     4.9301   -10.2804 H       
 245 H245           2.9671     4.4096    -8.5901 H       
 246 H246           1.5781     6.3204    -7.8365 H       
 247 H247           1.3770     6.8409    -9.5268 H       
 248 H248           0.4909     4.1574    -8.3733 H       
 249 H249           0.2899     4.6779   -10.0635 H       
@<TRIPOS>BOND
   1    1    2 2
   2    1    4 1
   3    1    9 am
   4    3   99 am
   5    3    4 1
   6    3  116 1
   7    4    5 1
   8    4  117 1
   9    5    6 1
  10    5  118 1
  11    5  119 1
  12    6  120 1
  13    7    8 2
  14    7   10 1
  15    7   18 am
  16    9   10 1
  17    9  121 1
  18   10   11 1
  19   10  122 1
  20   11   12 1
  21   11  123 1
  22   11  124 1
  23   12   13 1
  24   12  125 1
  25   12  126 1
  26   13   14 2
  27   13   15 1
  28   15  127 1
  29   16   17 2
  30   16   19 1
  31   16   25 am
  32   18   19 1
  33   18  128 1
  34   19   20 1
  35   19  129 1
  36   20   21 1
  37   20   22 1
  38   20  130 1
  39   21  131 1
  40   21  132 1
  41   21  133 1
  42   22  134 1
  43   23   24 2
  44   23   26 1
  45   23   33 am
  46   25   26 1
  47   25  135 1
  48   26   27 1
  49   26  136 1
  50   27   28 1
  51   27   30 1
  52   27  137 1
  53   28   29 1
  54   28  138 1
  55   28  139 1
  56   29  140 1
  57   29  141 1
  58   29  142 1
  59   30  143 1
  60   30  144 1
  61   30  145 1
  62   31   32 2
  63   31   34 1
  64   31   42 am
  65   33   34 1
  66   33  146 1
  67   34   35 1
  68   34  147 1
  69   35   36 1
  70   35  148 1
  71   35  149 1
  72   36   37 1
  73   36  150 1
  74   36  151 1
  75   37   38 2
  76   37   39 am
  77   39  152 1
  78   39  153 1
  79   40   41 2
  80   40   43 1
  81   40   54 am
  82   42   43 1
  83   42  154 1
  84   43   44 1
  85   43  155 1
  86   44   45 1
  87   44  156 1
  88   44  157 1
  89   45   46 ar
  90   45   51 ar
  91   46   47 ar
  92   46  158 1
  93   47   48 ar
  94   47  159 1
  95   48   49 1
  96   48   50 ar
  97   49  160 1
  98   50   51 ar
  99   50  161 1
 100   51  162 1
 101   52   53 2
 102   52   55 1
 103   52   65 am
 104   54   55 1
 105   54  163 1
 106   55   56 1
 107   55  164 1
 108   56   57 1
 109   56  165 1
 110   56  166 1
 111   57   58 1
 112   57  167 1
 113   57  168 1
 114   58   59 1
 115   58  169 1
 116   58  170 1
 117   59   60 1
 118   59  171 1
 119   60   61 2
 120   60   62 1
 121   61  172 1
 122   62  173 1
 123   62  174 1
 124   63   64 2
 125   63   66 1
 126   63   74 am
 127   65   66 1
 128   65  175 1
 129   66   67 1
 130   66  176 1
 131   67   68 1
 132   67  177 1
 133   67  178 1
 134   68   69 1
 135   68  179 1
 136   68  180 1
 137   69   70 1
 138   69  181 1
 139   69  182 1
 140   70   71 1
 141   70  183 1
 142   70  184 1
 143   71  185 1
 144   71  186 1
 145   72   73 2
 146   72   75 1
 147   72   79 am
 148   74   75 1
 149   74  187 1
 150   75   76 1
 151   75  188 1
 152   76  189 1
 153   76  190 1
 154   76  191 1
 155   77   78 2
 156   77   80 1
 157   77   86 am
 158   79   80 1
 159   79  192 1
 160   80   81 1
 161   80  193 1
 162   81   82 1
 163   81   83 1
 164   81  194 1
 165   82  195 1
 166   82  196 1
 167   82  197 1
 168   83  198 1
 169   83  199 1
 170   83  200 1
 171   84   85 2
 172   84   87 1
 173   84   95 am
 174   86   87 1
 175   86  201 1
 176   87   88 1
 177   87  202 1
 178   88   89 1
 179   88  203 1
 180   88  204 1
 181   89   90 1
 182   89  205 1
 183   89  206 1
 184   90   91 1
 185   90  207 1
 186   90  208 1
 187   91   92 1
 188   91  209 1
 189   91  210 1
 190   92  211 1
 191   92  212 1
 192   93   94 2
 193   93   96 1
 194   93   98 1
 195   95   96 1
 196   95  213 1
 197   96   97 1
 198   96  214 1
 199   97  215 1
 200   97  216 1
 201   97  217 1
 202   98  218 1
 203   99  100 2
 204   99  115 1
 205  101  102 1
 206  101  219 1
 207  101  220 1
 208  101  221 1
 209  102  103 1
 210  102  222 1
 211  102  223 1
 212  103  104 1
 213  103  224 1
 214  103  225 1
 215  104  105 1
 216  104  226 1
 217  104  227 1
 218  105  106 1
 219  105  228 1
 220  105  229 1
 221  106  107 1
 222  106  230 1
 223  106  231 1
 224  107  108 1
 225  107  232 1
 226  107  233 1
 227  108  109 1
 228  108  234 1
 229  108  235 1
 230  109  110 1
 231  109  236 1
 232  109  237 1
 233  110  111 1
 234  110  238 1
 235  110  239 1
 236  111  112 1
 237  111  240 1
 238  111  241 1
 239  112  113 1
 240  112  242 1
 241  112  243 1
 242  113  114 1
 243  113  244 1
 244  113  245 1
 245  114  115 1
 246  114  246 1
 247  114  247 1
 248  115  248 1
 249  115  249 1

#	End of record

