#	Name: ASD05740265
#	Creating user name:	WinNT
#	Creation time:	15. 06. 2019 21:03

#	Modifying user name:	WinNT
#	Modification time:	15. 06. 2019 21:03

#	Program:	/corina/corina34_cracker 3.40 0067  02.08.2006

@<TRIPOS>MOLECULE
ASD05740265
  71   76    0    0    0
SMALL
NO_CHARGES


@<TRIPOS>ATOM
   1 C1            -0.1075    -0.7473    -1.3331 C.3     
   2 N2             0.7825    -0.3489    -0.2397 N.pl3   
   3 C3             0.6997    -0.9929     0.9998 C.ar    
   4 C4             1.5434    -0.6153     2.0363 C.ar    
   5 C5             1.4614    -1.2504     3.2595 C.ar    
   6 C6             0.5353    -2.2669     3.4534 C.ar    
   7 C7            -0.3083    -2.6446     2.4170 C.ar    
   8 C8            -0.2300    -2.0059     1.1954 C.ar    
   9 N9             0.4525    -2.9116     4.6941 N.pl3   
  10 C10            0.6722    -2.2007     5.8577 C.ar    
  11 N11            0.8472    -0.8859     5.7810 N.ar    
  12 N12            0.6952    -2.8539     7.0096 N.ar    
  13 C13            0.9032    -2.2046     8.1494 C.ar    
  14 C14            1.0988    -0.8070     8.1077 C.ar    
  15 C15            1.0600    -0.1607     6.8629 C.ar    
  16 N16            0.9283    -2.8732     9.3472 N.am    
  17 C17            1.1388    -2.2095    10.5003 C.2     
  18 C18            1.3447    -0.7598    10.4922 C.2     
  19 C19            1.3228    -0.0842     9.3014 C.2     
  20 C20            0.7235    -4.3236     9.3725 C.3     
  21 O21            1.1576    -2.8184    11.5551 O.2     
  22 C22            2.0401    -5.0208     9.1455 C.ar    
  23 C23           -1.4403    -0.0066    -1.2027 C.3     
  24 C24            1.5753    -0.0305    11.7612 C.ar    
  25 C25            0.6439     0.9055    12.2099 C.ar    
  26 C26            0.8642     1.5816    13.3924 C.ar    
  27 C27            2.0063     1.3327    14.1323 C.ar    
  28 C28            2.9339     0.4054    13.6924 C.ar    
  29 C29            2.7216    -0.2815    12.5146 C.ar    
  30 C30            2.0798    -6.3958     9.0111 C.ar    
  31 C31            3.2877    -7.0354     8.8029 C.ar    
  32 C32            4.4555    -6.2998     8.7286 C.ar    
  33 C33            4.4157    -4.9243     8.8621 C.ar    
  34 C34            3.2076    -4.2845     9.0660 C.ar    
  35 C35            0.8066    -7.1979     9.0921 C.3     
  36 F36            1.1084    -8.5615     9.0099 F       
  37 F37            0.1660    -6.9345    10.3076 F       
  38 F38           -0.0367    -6.8423     8.0339 F       
  39 N39           -2.3251    -0.3897    -2.3103 N.3     
  40 C40           -1.7459    -0.0149    -3.6066 C.3     
  41 C41           -0.4222    -0.7559    -3.8088 C.3     
  42 C42            0.5395    -0.3914    -2.6744 C.3     
  43 H43           -0.2825    -1.8222    -1.2866 H       
  44 H44            1.4291     0.3614    -0.3751 H       
  45 H45            2.2639     0.1750     1.8855 H       
  46 H46            2.1178    -0.9570     4.0654 H       
  47 H47           -1.0286    -3.4351     2.5678 H       
  48 H48           -0.8861    -2.2996     0.3894 H       
  49 H49            0.2408    -3.8573     4.7362 H       
  50 H50            1.2052     0.9071     6.7913 H       
  51 H51            1.4729     0.9850     9.2749 H       
  52 H52            0.3195    -4.6167    10.3415 H       
  53 H53            0.0229    -4.6054     8.5864 H       
  54 H54           -1.9104    -0.2689    -0.2549 H       
  55 H55           -1.2630     1.0684    -1.2347 H       
  56 H56           -0.2477     1.1011    11.6327 H       
  57 H57            0.1437     2.3067    13.7409 H       
  58 H58            2.1747     1.8649    15.0569 H       
  59 H59            3.8236     0.2153    14.2743 H       
  60 H60            3.4462    -1.0055    12.1723 H       
  61 H61            3.3188    -8.1099     8.6986 H       
  62 H62            5.3991    -6.7995     8.5667 H       
  63 H63            5.3282    -4.3495     8.8044 H       
  64 H64            3.1765    -3.2100     9.1702 H       
  65 H65           -2.5360    -1.3760    -2.2800 H       
  66 H66           -2.4380    -0.2834    -4.4048 H       
  67 H67           -1.5672     1.0601    -3.6273 H       
  68 H68           -0.6022    -1.8309    -3.8019 H       
  69 H69            0.0151    -0.4656    -4.7641 H       
  70 H70            0.7503     0.6776    -2.7050 H       
  71 H71            1.4682    -0.9502    -2.7906 H       
@<TRIPOS>BOND
   1    1    2 1
   2    1   23 1
   3    1   42 1
   4    1   43 1
   5    2    3 1
   6    2   44 1
   7    3    4 ar
   8    3    8 ar
   9    4    5 ar
  10    4   45 1
  11    5    6 ar
  12    5   46 1
  13    6    7 ar
  14    6    9 1
  15    7    8 ar
  16    7   47 1
  17    8   48 1
  18    9   10 1
  19    9   49 1
  20   10   11 ar
  21   10   12 ar
  22   11   15 ar
  23   12   13 ar
  24   13   14 ar
  25   13   16 1
  26   14   15 ar
  27   14   19 1
  28   15   50 1
  29   16   17 am
  30   16   20 1
  31   17   18 1
  32   17   21 2
  33   18   19 2
  34   18   24 1
  35   19   51 1
  36   20   22 1
  37   20   52 1
  38   20   53 1
  39   22   30 ar
  40   22   34 ar
  41   23   39 1
  42   23   54 1
  43   23   55 1
  44   24   25 ar
  45   24   29 ar
  46   25   26 ar
  47   25   56 1
  48   26   27 ar
  49   26   57 1
  50   27   28 ar
  51   27   58 1
  52   28   29 ar
  53   28   59 1
  54   29   60 1
  55   30   31 ar
  56   30   35 1
  57   31   32 ar
  58   31   61 1
  59   32   33 ar
  60   32   62 1
  61   33   34 ar
  62   33   63 1
  63   34   64 1
  64   35   36 1
  65   35   37 1
  66   35   38 1
  67   39   40 1
  68   39   65 1
  69   40   41 1
  70   40   66 1
  71   40   67 1
  72   41   42 1
  73   41   68 1
  74   41   69 1
  75   42   70 1
  76   42   71 1

#	End of record

