#	Name: ASD01883032
#	Creating user name:	WinNT
#	Creation time:	15. 06. 2019 19:45

#	Modifying user name:	WinNT
#	Modification time:	15. 06. 2019 19:45

#	Program:	/corina/corina34_cracker 3.40 0067  02.08.2006

@<TRIPOS>MOLECULE
ASD01883032
  51   53    0    0    0
SMALL
NO_CHARGES


@<TRIPOS>ATOM
   1 N1            -0.2495     1.5398    -1.2529 N.am    
   2 C2            -0.3330     0.2821    -1.7247 C.2     
   3 C3            -1.5159    -0.4708    -1.5240 C.2     
   4 C4            -2.5845     0.1236    -0.8286 C.2     
   5 C5            -2.4352     1.4441    -0.3596 C.2     
   6 C6            -1.2797     2.1113    -0.5771 C.2     
   7 O7             0.6084    -0.2086    -2.3244 O.2     
   8 C8            -1.6220    -1.8101    -2.0196 C.1     
   9 N9            -1.7062    -2.8726    -2.4127 N.1     
  10 C10            0.9804     2.3062    -1.4676 C.3     
  11 C11            0.8787     3.0749    -2.7866 C.3     
  12 C12           -5.9156    -1.5113    -1.4191 C.ar    
  13 C13           -3.8380    -0.6211    -0.5951 C.ar    
  14 C14           -4.1227    -1.1339     0.6730 C.ar    
  15 C15           -5.2929    -1.8275     0.8870 C.ar    
  16 C16           -6.1921    -2.0188    -0.1560 C.ar    
  17 O17           -7.3441    -2.7034     0.0608 O.3     
  18 C18           -7.3392    -4.0435    -0.1544 C.ar    
  19 C19           -6.1604    -4.7102    -0.4802 C.ar    
  20 C20           -6.1969    -6.0733    -0.6907 C.ar    
  21 N21           -7.3290    -6.7435    -0.5868 N.ar    
  22 C22           -8.4657    -6.1476    -0.2801 C.ar    
  23 C23           -8.5116    -4.7881    -0.0493 C.ar    
  24 C24           -4.7451    -0.8152    -1.6435 C.ar    
  25 C25            2.1632     3.8753    -3.0108 C.3     
  26 C26            2.0614     4.6440    -4.3298 C.3     
  27 C27           -9.7286    -6.9632    -0.1750 C.3     
  28 C28           -4.9283    -6.8058    -1.0443 C.3     
  29 F29           -4.4757    -0.3218    -2.8720 F       
  30 H30           -3.2419     1.9214     0.1769 H       
  31 H31           -1.1765     3.1227    -0.2128 H       
  32 H32            1.1180     3.0099    -0.6467 H       
  33 H33            1.8304     1.6251    -1.5087 H       
  34 H34            0.7411     2.3712    -3.6075 H       
  35 H35            0.0287     3.7560    -2.7455 H       
  36 H36           -6.6147    -1.6660    -2.2276 H       
  37 H37           -3.4254    -0.9868     1.4845 H       
  38 H38           -5.5126    -2.2241     1.8672 H       
  39 H39           -5.2307    -4.1676    -0.5671 H       
  40 H40           -9.4452    -4.3066     0.2014 H       
  41 H41            2.3008     4.5790    -2.1898 H       
  42 H42            3.0132     3.1942    -3.0518 H       
  43 H43            1.9239     3.9403    -5.1507 H       
  44 H44            1.2114     5.3251    -4.2887 H       
  45 H45            2.9765     5.2142    -4.4895 H       
  46 H46           -9.8472    -7.3190     0.8484 H       
  47 H47          -10.5842    -6.3447    -0.4462 H       
  48 H48           -9.6678    -7.8158    -0.8514 H       
  49 H49           -4.4362    -7.1416    -0.1315 H       
  50 H50           -5.1681    -7.6683    -1.6662 H       
  51 H51           -4.2631    -6.1374    -1.5909 H       
@<TRIPOS>BOND
   1    1    2 am
   2    1   10 1
   3    1    6 1
   4    2    3 1
   5    2    7 2
   6    3    4 2
   7    3    8 1
   8    4    5 1
   9    4   13 1
  10    5    6 2
  11    5   30 1
  12    6   31 1
  13    8    9 3
  14   10   11 1
  15   10   32 1
  16   10   33 1
  17   11   25 1
  18   11   34 1
  19   11   35 1
  20   12   24 ar
  21   12   16 ar
  22   12   36 1
  23   13   14 ar
  24   13   24 ar
  25   14   15 ar
  26   14   37 1
  27   15   16 ar
  28   15   38 1
  29   16   17 1
  30   17   18 1
  31   18   19 ar
  32   18   23 ar
  33   19   20 ar
  34   19   39 1
  35   20   21 ar
  36   20   28 1
  37   21   22 ar
  38   22   23 ar
  39   22   27 1
  40   23   40 1
  41   24   29 1
  42   25   26 1
  43   25   41 1
  44   25   42 1
  45   26   43 1
  46   26   44 1
  47   26   45 1
  48   27   46 1
  49   27   47 1
  50   27   48 1
  51   28   49 1
  52   28   50 1
  53   28   51 1

#	End of record

