#	Name: ASD04230007
#	Creating user name:	WinNT
#	Creation time:	15. 06. 2019 20:48

#	Modifying user name:	WinNT
#	Modification time:	15. 06. 2019 20:48

#	Program:	/corina/corina34_cracker 3.40 0067  02.08.2006

@<TRIPOS>MOLECULE
ASD04230007
  51   55    0    0    0
SMALL
NO_CHARGES


@<TRIPOS>ATOM
   1 C1            -0.0201     1.3790     0.0495 C.ar    
   2 C2            -0.0003    -0.0082     0.0382 C.ar    
   3 C3             1.1848    -0.6863     0.0295 C.ar    
   4 C4             2.3957     0.0212     0.0424 C.ar    
   5 C5             2.3815     1.4276     0.0207 C.ar    
   6 C6             1.1610     2.0997     0.0380 C.ar    
   7 C7             3.6343    -0.6710     0.0723 C.2     
   8 C8             4.7886     0.0708     0.2855 C.2     
   9 C9             4.6293     1.5213     0.4960 C.2     
  10 O10            3.5429     2.1221    -0.0388 O.3     
  11 C11            6.1166    -0.5650     0.3013 C.2     
  12 N12            7.2188     0.1818     0.5109 N.am    
  13 O13            6.2189    -1.7642     0.1252 O.2     
  14 C14            8.4676    -0.4350     0.6381 C.ar    
  15 C15            9.6061     0.1931     0.1483 C.ar    
  16 C16           10.8419    -0.4134     0.2723 C.ar    
  17 C17           10.9520    -1.6464     0.8833 C.ar    
  18 C18            9.8152    -2.2836     1.3781 C.ar    
  19 C19            8.5708    -1.6713     1.2584 C.ar    
  20 C20            9.9319    -3.6094     2.0348 C.2     
  21 O21            5.4494     2.1573     1.1312 O.2     
  22 C22           11.0942    -4.2669     2.3037 C.2     
  23 N23           10.7581    -5.4448     2.9098 N.pl3   
  24 C24            9.3899    -5.4801     2.9979 C.2     
  25 N25            8.9105    -4.3634     2.4709 N.2     
  26 C26           11.5084    -6.4801     3.3887 C.2     
  27 C27           10.9177    -7.5529     3.9554 C.2     
  28 C28            9.5184    -7.6186     4.0603 C.2     
  29 C29            8.7583    -6.5946     3.5876 C.2     
  30 O30            1.1309     3.4591     0.0425 O.3     
  31 C31            0.0103     5.6002     0.0631 C.3     
  32 C32           -0.1564     4.0794     0.0604 C.3     
  33 H33           -0.9655     1.9009     0.0630 H       
  34 H34           -0.9306    -0.5567     0.0366 H       
  35 H35            1.1898    -1.7661     0.0131 H       
  36 H36            3.6777    -1.7412    -0.0662 H       
  37 H37            7.1460     1.1470     0.5734 H       
  38 H38            9.5252     1.1576    -0.3309 H       
  39 H39           11.7239     0.0785    -0.1103 H       
  40 H40           11.9192    -2.1176     0.9778 H       
  41 H41            7.6873    -2.1610     1.6405 H       
  42 H42           12.0930    -3.9225     2.0798 H       
  43 H43           12.5850    -6.4403     3.3129 H       
  44 H44           11.5235    -8.3649     4.3297 H       
  45 H45            9.0482    -8.4785     4.5141 H       
  46 H46            7.6817    -6.6345     3.6630 H       
  47 H47           -0.9715     6.0734     0.0767 H       
  48 H48            0.5717     5.9027     0.9471 H       
  49 H49            0.5496     5.9082    -0.8327 H       
  50 H50           -0.7178     3.7769    -0.8236 H       
  51 H51           -0.6957     3.7714     0.9562 H       
@<TRIPOS>BOND
   1    1    2 ar
   2    1    6 ar
   3    1   33 1
   4    2    3 ar
   5    2   34 1
   6    3    4 ar
   7    3   35 1
   8    4    5 ar
   9    4    7 1
  10    5    6 ar
  11    5   10 1
  12    6   30 1
  13    7    8 2
  14    7   36 1
  15    8    9 1
  16    8   11 1
  17    9   10 1
  18    9   21 2
  19   11   12 am
  20   11   13 2
  21   12   14 1
  22   12   37 1
  23   14   15 ar
  24   14   19 ar
  25   15   16 ar
  26   15   38 1
  27   16   17 ar
  28   16   39 1
  29   17   18 ar
  30   17   40 1
  31   18   19 ar
  32   18   20 1
  33   19   41 1
  34   20   22 2
  35   20   25 1
  36   22   23 1
  37   22   42 1
  38   23   24 1
  39   23   26 1
  40   24   25 2
  41   24   29 1
  42   26   27 2
  43   26   43 1
  44   27   28 1
  45   27   44 1
  46   28   29 2
  47   28   45 1
  48   29   46 1
  49   30   32 1
  50   31   32 1
  51   31   47 1
  52   31   48 1
  53   31   49 1
  54   32   50 1
  55   32   51 1

#	End of record

