#	Name: ASD02500023
#	Creating user name:	WinNT
#	Creation time:	15. 06. 2019 20:22

#	Modifying user name:	WinNT
#	Modification time:	15. 06. 2019 20:22

#	Program:	/corina/corina34_cracker 3.40 0067  02.08.2006

@<TRIPOS>MOLECULE
ASD02500023
  63   65    0    0    0
SMALL
NO_CHARGES


@<TRIPOS>ATOM
   1 C1            -0.6184     0.3642    -1.5155 C.ar    
   2 C2             0.0401     0.0555    -0.3267 C.ar    
   3 C3            -0.5236     0.4237     0.8935 C.ar    
   4 C4            -1.7453     1.1000     0.9204 C.ar    
   5 C5            -2.3968     1.4051    -0.2642 C.ar    
   6 C6            -1.8370     1.0454    -1.4800 C.ar    
   7 C7            -0.0250    -0.0233    -2.8120 C.2     
   8 O8             1.0375    -0.6114    -2.8422 O.2     
   9 O9            -0.6622     0.2755    -3.9606 O.3     
  10 C10           -0.0208    -0.1358    -5.1966 C.3     
  11 C11            0.1699     0.0985     2.1570 C.2     
  12 O12            1.2321    -0.4901     2.1327 O.2     
  13 O13           -0.3759     0.4548     3.3359 O.3     
  14 C14            0.3609     0.1029     4.5366 C.3     
  15 O15           -3.5854     2.0633    -0.2337 O.3     
  16 C16           -3.5688     3.3976     0.0160 C.ar    
  17 C17           -2.3596     4.0505     0.2130 C.ar    
  18 C18           -2.3371     5.4048     0.4663 C.ar    
  19 C19           -3.5331     6.1252     0.5257 C.ar    
  20 C20           -4.7516     5.4692     0.3276 C.ar    
  21 C21           -4.7674     4.1115     0.0685 C.ar    
  22 C22           -3.5099     7.5746     0.7973 C.2     
  23 O23           -2.3346     8.2055     0.9885 O.3     
  24 O24           -4.5505     8.1998     0.8486 O.2     
  25 C25           -2.3877     9.6326     1.2512 C.3     
  26 N26           -5.9869     3.4498    -0.1307 N.am    
  27 C27           -7.1096     3.9163     0.4511 C.2     
  28 N28           -8.2620     3.2259     0.3419 N.am    
  29 O29           -7.0828     4.9599     1.0744 O.2     
  30 C30           -9.4823     3.7329     0.9743 C.3     
  31 C31          -10.7051     3.1823     0.2377 C.3     
  32 C32          -11.9795     3.7118     0.8981 C.3     
  33 C33          -12.0203     3.2634     2.3604 C.3     
  34 C34          -10.7976     3.8141     3.0970 C.3     
  35 C35           -9.5231     3.2845     2.4365 C.3     
  36 H36            0.9845    -0.4679    -0.3509 H       
  37 H37           -2.1830     1.3854     1.8656 H       
  38 H38           -2.3478     1.2853    -2.4009 H       
  39 H39           -0.6372     0.1655    -6.0436 H       
  40 H40            0.9581     0.3377    -5.2730 H       
  41 H41            0.0984    -1.2192    -5.2011 H       
  42 H42            1.3421     0.5770     4.5129 H       
  43 H43           -0.1877     0.4468     5.4134 H       
  44 H44            0.4814    -0.9794     4.5848 H       
  45 H45           -1.4342     3.4955     0.1678 H       
  46 H46           -1.3947     5.9097     0.6195 H       
  47 H47           -5.6779     6.0225     0.3727 H       
  48 H48           -2.9682     9.8142     2.1557 H       
  49 H49           -1.3759    10.0150     1.3858 H       
  50 H50           -2.8588    10.1397     0.4092 H       
  51 H51           -6.0228     2.6562    -0.6873 H       
  52 H52           -8.2834     2.3934    -0.1554 H       
  53 H53           -9.4901     4.8219     0.9278 H       
  54 H54          -10.6760     3.5018    -0.8041 H       
  55 H55          -10.6973     2.0933     0.2841 H       
  56 H56          -11.9873     4.8008     0.8517 H       
  57 H57          -12.8507     3.3196     0.3733 H       
  58 H58          -12.9283     3.6407     2.8309 H       
  59 H59          -12.0126     2.1744     2.4068 H       
  60 H60          -10.8054     4.9030     3.0505 H       
  61 H61          -10.8267     3.4946     4.1387 H       
  62 H62           -9.5153     2.1956     2.4830 H       
  63 H63           -8.6520     3.6768     2.9613 H       
@<TRIPOS>BOND
   1    1    2 ar
   2    1    7 1
   3    1    6 ar
   4    2    3 ar
   5    2   36 1
   6    3    4 ar
   7    3   11 1
   8    4    5 ar
   9    4   37 1
  10    5    6 ar
  11    5   15 1
  12    6   38 1
  13    7    8 2
  14    7    9 1
  15    9   10 1
  16   10   39 1
  17   10   40 1
  18   10   41 1
  19   11   12 2
  20   11   13 1
  21   13   14 1
  22   14   42 1
  23   14   43 1
  24   14   44 1
  25   15   16 1
  26   16   17 ar
  27   16   21 ar
  28   17   18 ar
  29   17   45 1
  30   18   19 ar
  31   18   46 1
  32   19   20 ar
  33   19   22 1
  34   20   21 ar
  35   20   47 1
  36   21   26 1
  37   22   23 1
  38   22   24 2
  39   23   25 1
  40   25   48 1
  41   25   49 1
  42   25   50 1
  43   26   27 am
  44   26   51 1
  45   27   28 am
  46   27   29 2
  47   28   30 1
  48   28   52 1
  49   30   31 1
  50   30   35 1
  51   30   53 1
  52   31   32 1
  53   31   54 1
  54   31   55 1
  55   32   33 1
  56   32   56 1
  57   32   57 1
  58   33   34 1
  59   33   58 1
  60   33   59 1
  61   34   35 1
  62   34   60 1
  63   34   61 1
  64   35   62 1
  65   35   63 1

#	End of record

