#	Name: ASD01911725
#	Creating user name:	WinNT
#	Creation time:	15. 06. 2019 19:58

#	Modifying user name:	WinNT
#	Modification time:	15. 06. 2019 19:58

#	Program:	/corina/corina34_cracker 3.40 0067  02.08.2006

@<TRIPOS>MOLECULE
ASD01911725
  43   45    0    0    0
SMALL
NO_CHARGES


@<TRIPOS>ATOM
   1 N1            -0.0112     1.2602    -0.4647 N.am    
   2 C2             0.0021    -0.0041     0.0020 C.2     
   3 C3            -1.2512    -0.7546     0.1206 C.2     
   4 C4            -1.3893    -2.1141     0.0314 C.2     
   5 S5            -2.8483    -0.0696     0.4109 S.3     
   6 C6            -3.5384    -1.6330     0.3786 C.2     
   7 N7            -2.6172    -2.5347     0.1728 N.2     
   8 C8            -4.9309    -1.9146     0.5576 C.1     
   9 C9            -6.0726    -2.1455     0.7043 C.1     
  10 C10           -7.5041    -2.4350     0.8883 C.3     
  11 C11           -7.7354    -3.9445     0.7938 C.3     
  12 C12           -9.2233    -4.2454     0.9850 C.3     
  13 C13           -9.6721    -3.7457     2.3597 C.3     
  14 C14           -9.4408    -2.2363     2.4542 C.3     
  15 C15           -7.9529    -1.9354     2.2630 C.3     
  16 O16            1.0548    -0.5225     0.3250 O.2     
  17 C17            1.2125     2.0735    -0.4581 C.3     
  18 C18            1.4551     2.6108    -1.8720 C.3     
  19 C19            0.2074     3.3564    -2.3511 C.3     
  20 C20           -0.9792     2.3910    -2.3982 C.3     
  21 C21           -1.2481     1.8494    -0.9954 C.3     
  22 H22           -0.5563    -2.7795    -0.1411 H       
  23 H23           -8.0796    -1.9300     0.1125 H       
  24 H24           -7.4157    -4.3004    -0.1856 H       
  25 H25           -7.1599    -4.4495     1.5696 H       
  26 H26           -9.7988    -3.7403     0.2092 H       
  27 H27           -9.3881    -5.3207     0.9177 H       
  28 H28          -10.7321    -3.9601     2.4959 H       
  29 H29           -9.0966    -4.2508     3.1355 H       
  30 H30          -10.0162    -1.7312     1.6784 H       
  31 H31           -9.7605    -1.8803     3.4336 H       
  32 H32           -7.3774    -2.4404     3.0388 H       
  33 H33           -7.7881    -0.8600     2.3303 H       
  34 H34            1.0935     2.9070     0.2341 H       
  35 H35            2.0583     1.4585    -0.1507 H       
  36 H36            2.3049     3.2932    -1.8610 H       
  37 H37            1.6637     1.7800    -2.5461 H       
  38 H38           -0.0150     4.1719    -1.6629 H       
  39 H39            0.3863     3.7608    -3.3474 H       
  40 H40           -1.8619     2.9171    -2.7618 H       
  41 H41           -0.7476     1.5623    -3.0673 H       
  42 H42           -2.0267     1.0880    -1.0408 H       
  43 H43           -1.5674     2.6632    -0.3445 H       
@<TRIPOS>BOND
   1    1    2 am
   2    1   17 1
   3    1   21 1
   4    2    3 1
   5    2   16 2
   6    3    4 2
   7    3    5 1
   8    4    7 1
   9    4   22 1
  10    5    6 1
  11    6    7 2
  12    6    8 1
  13    8    9 3
  14    9   10 1
  15   10   11 1
  16   10   15 1
  17   10   23 1
  18   11   12 1
  19   11   24 1
  20   11   25 1
  21   12   13 1
  22   12   26 1
  23   12   27 1
  24   13   14 1
  25   13   28 1
  26   13   29 1
  27   14   15 1
  28   14   30 1
  29   14   31 1
  30   15   32 1
  31   15   33 1
  32   17   18 1
  33   17   34 1
  34   17   35 1
  35   18   19 1
  36   18   36 1
  37   18   37 1
  38   19   20 1
  39   19   38 1
  40   19   39 1
  41   20   21 1
  42   20   40 1
  43   20   41 1
  44   21   42 1
  45   21   43 1

#	End of record

