#	Name: ASD00170401
#	Creating user name:	WinNT
#	Creation time:	15. 06. 2019 18:32

#	Modifying user name:	WinNT
#	Modification time:	15. 06. 2019 18:32

#	Program:	/corina/corina34_cracker 3.40 0067  02.08.2006

@<TRIPOS>MOLECULE
ASD00170401
  33   35    0    0    0
SMALL
NO_CHARGES


@<TRIPOS>ATOM
   1 C1            -0.1046     1.6801    -0.1240 C.3     
   2 C2            -0.1295     0.1491    -0.0855 C.3     
   3 C3             0.3957    -0.3922    -1.4179 C.3     
   4 C4             1.7109     0.2924    -1.7383 C.2     
   5 C5             2.1360     1.4176    -1.1551 C.2     
   6 C6             1.3481     2.1597    -0.0872 C.3     
   7 S7             2.8773    -0.2799    -2.9196 S.3     
   8 C8             3.9421     1.0136    -2.6178 C.2     
   9 C9             3.4302     1.8474    -1.6566 C.2     
  10 C10            4.1176     3.0491    -1.1844 C.2     
  11 N11            5.1536     1.1977    -3.2526 N.pl3   
  12 O12            4.8667     2.9853    -0.2265 O.2     
  13 C13            3.9029     4.3415    -1.8704 C.ar    
  14 C14            4.4626     5.5110    -1.3527 C.ar    
  15 C15            4.2589     6.7132    -1.9967 C.ar    
  16 C16            3.5004     6.7619    -3.1547 C.ar    
  17 C17            2.9426     5.6049    -3.6730 C.ar    
  18 C18            3.1446     4.3959    -3.0412 C.ar    
  19 Cl19           3.2474     8.2793    -3.9593 Cl      
  20 H20           -0.5804     2.0292    -1.0404 H       
  21 H21           -0.6405     2.0749     0.7391 H       
  22 H22            0.5041    -0.2056     0.7274 H       
  23 H23           -1.1519    -0.1952     0.0704 H       
  24 H24            0.5534    -1.4679    -1.3386 H       
  25 H25           -0.3266    -0.1839    -2.2072 H       
  26 H26            1.3843     3.2310    -0.2848 H       
  27 H27            1.7767     1.9523     0.8933 H       
  28 H28            5.4854     0.5260    -3.8687 H       
  29 H29            5.6734     1.9989    -3.0826 H       
  30 H30            5.0535     5.4743    -0.4495 H       
  31 H31            4.6913     7.6187    -1.5973 H       
  32 H32            2.3518     5.6490    -4.5760 H       
  33 H33            2.7092     3.4943    -3.4463 H       
@<TRIPOS>BOND
   1    1    2 1
   2    1    6 1
   3    1   20 1
   4    1   21 1
   5    2    3 1
   6    2   22 1
   7    2   23 1
   8    3    4 1
   9    3   24 1
  10    3   25 1
  11    4    5 2
  12    4    7 1
  13    5    6 1
  14    5    9 1
  15    6   26 1
  16    6   27 1
  17    7    8 1
  18    8    9 2
  19    8   11 1
  20    9   10 1
  21   10   12 2
  22   10   13 1
  23   11   28 1
  24   11   29 1
  25   13   14 ar
  26   13   18 ar
  27   14   15 ar
  28   14   30 1
  29   15   16 ar
  30   15   31 1
  31   16   17 ar
  32   16   19 1
  33   17   18 ar
  34   17   32 1
  35   18   33 1

#	End of record

