#	Name: ASD01148419
#	Creating user name:	WinNT
#	Creation time:	15. 06. 2019 19:02

#	Modifying user name:	WinNT
#	Modification time:	15. 06. 2019 19:02

#	Program:	/corina/corina34_cracker 3.40 0067  02.08.2006

@<TRIPOS>MOLECULE
ASD01148419
  51   54    0    0    0
SMALL
NO_CHARGES


@<TRIPOS>ATOM
   1 C1             0.3635     1.8420     0.0678 C.ar    
   2 C2             0.4618     0.4642    -0.0077 C.ar    
   3 C3            -0.6825    -0.3064    -0.0947 C.ar    
   4 C4            -1.9248     0.2995    -0.1063 C.ar    
   5 C5            -2.0237     1.6765    -0.0310 C.ar    
   6 C6            -0.8807     2.4476     0.0613 C.ar    
   7 C7            -3.3786     2.3363    -0.0438 C.3     
   8 O8            -4.3700     1.4914     0.5749 O.3     
   9 C9            -3.3995     3.5762     0.8816 C.3     
  10 C10           -3.9252     3.0058     2.1852 C.2     
  11 N11           -4.4447     1.8497     1.9406 N.2     
  12 C12           -3.8541     3.6600     3.5065 C.ar    
  13 C13           -4.3800     3.0203     4.6321 C.ar    
  14 C14           -3.2558     4.9162     3.6328 C.ar    
  15 C15           -3.1896     5.5262     4.8651 C.ar    
  16 C16           -3.7201     4.8891     5.9894 C.ar    
  17 C17           -4.3138     3.6303     5.8640 C.ar    
  18 C18           -3.6485     5.5437     7.3119 C.2     
  19 O19           -4.2064     5.0430     8.2688 O.2     
  20 N20           -2.9647     6.6959     7.4575 N.am    
  21 C21           -4.8861     2.9430     7.0769 C.3     
  22 C22           -3.7896     2.7091    -1.4696 C.3     
  23 F23           -3.8286     1.5557    -2.2604 F       
  24 F24           -5.0557     3.3038    -1.4496 F       
  25 F25           -2.8602     3.6087    -2.0027 F       
  26 Cl26           1.8001     2.8103     0.1777 Cl      
  27 C27           -2.8975     7.3110     8.7003 C.ar    
  28 N28           -2.2213     8.4427     8.8254 N.ar    
  29 N29           -3.5155     6.7547     9.7309 N.ar    
  30 C30           -3.4715     7.3145    10.9285 C.ar    
  31 C31           -2.7678     8.4969    11.0964 C.ar    
  32 C32           -2.1373     9.0546     9.9951 C.ar    
  33 C33           -0.5755    -1.8073    -0.1773 C.3     
  34 F34            0.7723    -2.1810    -0.1488 F       
  35 F35           -1.2422    -2.3829     0.9096 F       
  36 F36           -1.1575    -2.2514    -1.3696 F       
  37 H37            1.4324    -0.0093     0.0011 H       
  38 H38           -2.8186    -0.3030    -0.1747 H       
  39 H39           -0.9581     3.5232     0.1201 H       
  40 H40           -2.3949     3.9784     1.0125 H       
  41 H41           -4.0749     4.3382     0.4925 H       
  42 H42           -4.8389     2.0474     4.5353 H       
  43 H43           -2.8450     5.4084     2.7637 H       
  44 H44           -2.7271     6.4973     4.9627 H       
  45 H45           -2.5195     7.0954     6.6939 H       
  46 H46           -5.8933     3.3152     7.2640 H       
  47 H47           -4.9227     1.8678     6.9018 H       
  48 H48           -4.2561     3.1489     7.9423 H       
  49 H49           -3.9779     6.8562    11.7651 H       
  50 H50           -2.7158     8.9756    12.0632 H       
  51 H51           -1.5806     9.9749    10.0918 H       
@<TRIPOS>BOND
   1    1    2 ar
   2    1   26 1
   3    1    6 ar
   4    2    3 ar
   5    2   37 1
   6    3    4 ar
   7    3   33 1
   8    4    5 ar
   9    4   38 1
  10    5    6 ar
  11    5    7 1
  12    6   39 1
  13    7    8 1
  14    7    9 1
  15    7   22 1
  16    8   11 1
  17    9   10 1
  18    9   40 1
  19    9   41 1
  20   10   11 2
  21   10   12 1
  22   12   13 ar
  23   12   14 ar
  24   13   17 ar
  25   13   42 1
  26   14   15 ar
  27   14   43 1
  28   15   16 ar
  29   15   44 1
  30   16   17 ar
  31   16   18 1
  32   17   21 1
  33   18   19 2
  34   18   20 am
  35   20   27 1
  36   20   45 1
  37   21   46 1
  38   21   47 1
  39   21   48 1
  40   22   23 1
  41   22   24 1
  42   22   25 1
  43   27   28 ar
  44   27   29 ar
  45   28   32 ar
  46   29   30 ar
  47   30   31 ar
  48   30   49 1
  49   31   32 ar
  50   31   50 1
  51   32   51 1
  52   33   34 1
  53   33   35 1
  54   33   36 1

#	End of record

