#	Name: ASD01238005
#	Creating user name:	WinNT
#	Creation time:	15. 06. 2019 19:15

#	Modifying user name:	WinNT
#	Modification time:	15. 06. 2019 19:15

#	Program:	/corina/corina34_cracker 3.40 0067  02.08.2006

@<TRIPOS>MOLECULE
ASD01238005
  49   50    0    0    0
SMALL
NO_CHARGES


@<TRIPOS>ATOM
   1 C1             0.5523    -0.3102    -1.2497 C.3     
   2 C2            -0.1749     0.1097     0.0293 C.3     
   3 C3            -0.3212     1.6324     0.0563 C.3     
   4 S4            -1.8187    -0.6565     0.0696 S.o2    
   5 O5            -2.4228    -0.4740     1.3427 O.2     
   6 O6            -2.5308    -0.3722    -1.1268 O.2     
   7 N7            -1.5185    -2.2831    -0.0107 N.am    
   8 C8            -0.8118    -2.9524     1.0843 C.3     
   9 C9            -1.0063    -4.4655     0.9672 C.3     
  10 C10           -0.3370    -4.9681    -0.3136 C.3     
  11 C11           -0.3840    -5.1456     2.1594 C.ar    
  12 C12           -1.1665    -5.9140     3.0017 C.ar    
  13 C13           -0.5990    -6.5386     4.0951 C.ar    
  14 C14            0.7586    -6.3947     4.3478 C.ar    
  15 C15            1.5417    -5.6230     3.5001 C.ar    
  16 C16            0.9694    -5.0048     2.4055 C.ar    
  17 N17            1.3373    -7.0270     5.4570 N.pl3   
  18 N18            0.6689    -7.8306     6.3897 N.2     
  19 C19            1.5404    -8.2402     7.2760 C.2     
  20 C20            2.7909    -7.7116     6.9375 C.2     
  21 C21            2.6408    -6.9740     5.8129 C.2     
  22 C22            1.2473    -9.1276     8.4582 C.3     
  23 F23           -0.0861    -9.5477     8.4068 F       
  24 F24            2.0897   -10.2441     8.4234 F       
  25 F25            1.4664    -8.4149     9.6419 F       
  26 C26            4.0786    -7.9299     7.6892 C.3     
  27 O27            5.1371    -7.2275     7.0348 O.3     
  28 H28            1.5400     0.1502    -1.2740 H       
  29 H29            0.6565    -1.3950    -1.2690 H       
  30 H30           -0.0216     0.0151    -2.1174 H       
  31 H31            0.3990    -0.2157     0.8970 H       
  32 H32           -0.8263     1.9651    -0.8505 H       
  33 H33           -0.9075     1.9257     0.9271 H       
  34 H34            0.6659     2.0913     0.1116 H       
  35 H35           -1.8105    -2.7927    -0.7826 H       
  36 H36            0.2511    -2.7173     1.0281 H       
  37 H37           -1.2103    -2.6076     2.0384 H       
  38 H38           -2.0716    -4.6934     0.9340 H       
  39 H39           -0.4756    -6.0461    -0.3969 H       
  40 H40           -0.7871    -4.4762    -1.1758 H       
  41 H41            0.7283    -4.7403    -0.2804 H       
  42 H42           -2.2224    -6.0256     2.8045 H       
  43 H43           -1.2108    -7.1380     4.7530 H       
  44 H44            2.5980    -5.5092     3.6941 H       
  45 H45            1.5788    -4.4073     1.7436 H       
  46 H46            3.4215    -6.4376     5.2940 H       
  47 H47            3.9718    -7.5586     8.7084 H       
  48 H48            4.3094    -8.9950     7.7128 H       
  49 H49            5.9978    -7.3235     7.4652 H       
@<TRIPOS>BOND
   1    1    2 1
   2    1   28 1
   3    1   29 1
   4    1   30 1
   5    2    3 1
   6    2    4 1
   7    2   31 1
   8    3   32 1
   9    3   33 1
  10    3   34 1
  11    4    5 2
  12    4    6 2
  13    4    7 am
  14    7    8 1
  15    7   35 1
  16    8    9 1
  17    8   36 1
  18    8   37 1
  19    9   10 1
  20    9   11 1
  21    9   38 1
  22   10   39 1
  23   10   40 1
  24   10   41 1
  25   11   12 ar
  26   11   16 ar
  27   12   13 ar
  28   12   42 1
  29   13   14 ar
  30   13   43 1
  31   14   15 ar
  32   14   17 1
  33   15   16 ar
  34   15   44 1
  35   16   45 1
  36   17   18 1
  37   17   21 1
  38   18   19 2
  39   19   20 1
  40   19   22 1
  41   20   21 2
  42   20   26 1
  43   21   46 1
  44   22   23 1
  45   22   24 1
  46   22   25 1
  47   26   27 1
  48   26   47 1
  49   26   48 1
  50   27   49 1

#	End of record

