#	Name: ASD01940463
#	Creating user name:	WinNT
#	Creation time:	15. 06. 2019 20:12

#	Modifying user name:	WinNT
#	Modification time:	15. 06. 2019 20:12

#	Program:	/corina/corina34_cracker 3.40 0067  02.08.2006

@<TRIPOS>MOLECULE
ASD01940463
  52   55    0    0    0
SMALL
NO_CHARGES


@<TRIPOS>ATOM
   1 C1             0.8007     1.6248    -0.8139 C.ar    
   2 C2             0.7378     0.2373    -1.0355 C.ar    
   3 C3             1.2423    -0.6382    -0.0547 C.ar    
   4 C4             1.7901    -0.0721     1.1112 C.ar    
   5 C5             1.8103     1.3225     1.2454 C.ar    
   6 N6             1.3301     2.1059     0.3092 N.ar    
   7 N7            -0.1586     1.2109    -2.7981 N.2     
   8 N8             0.2427     2.2171    -1.9119 N.pl3   
   9 C9             0.1307     0.0444    -2.2978 C.2     
  10 C10            2.3331    -0.9316     2.1736 C.2     
  11 O11            2.2240    -2.1396     2.0933 O.2     
  12 O12            2.9519    -0.3799     3.2365 O.3     
  13 C13            0.0902     3.6585    -2.1247 C.3     
  14 C14            1.3132     4.1954    -2.8228 C.ar    
  15 C15            1.3599     4.2302    -4.2042 C.ar    
  16 C16            2.4798     4.7218    -4.8465 C.ar    
  17 C17            3.5582     5.1808    -4.1042 C.ar    
  18 C18            3.5089     5.1448    -2.7182 C.ar    
  19 C19            2.3844     4.6575    -2.0807 C.ar    
  20 O20            4.6612     5.6645    -4.7337 O.3     
  21 C21            5.7332     6.1199    -3.9058 C.3     
  22 N22            1.2003    -2.0061    -0.2310 N.pl3   
  23 C23            0.0272    -2.7126     0.0554 C.ar    
  24 C24            0.0204    -4.1029     0.0033 C.ar    
  25 C25           -1.1409    -4.7973     0.2869 C.ar    
  26 C26           -2.2946    -4.1104     0.6215 C.ar    
  27 C27           -2.2899    -2.7284     0.6734 C.ar    
  28 C28           -1.1310    -2.0284     0.3975 C.ar    
  29 I29           -4.0526    -5.1664     1.0499 I       
  30 F30            1.1466    -4.7733    -0.3242 F       
  31 C31            3.3607    -1.2788     4.3011 C.3     
  32 C32            3.9317    -0.4654     5.4643 C.3     
  33 H33            2.2297     1.7617     2.1385 H       
  34 H34           -0.0655    -0.9094    -2.7650 H       
  35 H35           -0.7901     3.8438    -2.7402 H       
  36 H36           -0.0274     4.1574    -1.1627 H       
  37 H37            0.5202     3.8724    -4.7816 H       
  38 H38            2.5159     4.7485    -5.9255 H       
  39 H39            4.3471     5.5016    -2.1381 H       
  40 H40            2.3436     4.6336    -1.0017 H       
  41 H41            6.5491     6.4794    -4.5329 H       
  42 H42            5.3808     6.9307    -3.2682 H       
  43 H43            6.0876     5.2971    -3.2849 H       
  44 H44            1.9842    -2.4778    -0.5533 H       
  45 H45           -1.1478    -5.8765     0.2470 H       
  46 H46           -3.1925    -2.1957     0.9342 H       
  47 H47           -1.1275    -0.9494     0.4435 H       
  48 H48            2.4984    -1.8497     4.6457 H       
  49 H49            4.1229    -1.9622     3.9269 H       
  50 H50            3.1694     0.2180     5.8385 H       
  51 H51            4.2385    -1.1401     6.2635 H       
  52 H52            4.7939     0.1055     5.1197 H       
@<TRIPOS>BOND
   1    1    2 ar
   2    1    6 ar
   3    1    8 1
   4    2    3 ar
   5    2    9 1
   6    3    4 ar
   7    3   22 1
   8    4    5 ar
   9    4   10 1
  10    5    6 ar
  11    5   33 1
  12    7    8 1
  13    7    9 2
  14    8   13 1
  15    9   34 1
  16   10   11 2
  17   10   12 1
  18   12   31 1
  19   13   14 1
  20   13   35 1
  21   13   36 1
  22   14   15 ar
  23   14   19 ar
  24   15   16 ar
  25   15   37 1
  26   16   17 ar
  27   16   38 1
  28   17   18 ar
  29   17   20 1
  30   18   19 ar
  31   18   39 1
  32   19   40 1
  33   20   21 1
  34   21   41 1
  35   21   42 1
  36   21   43 1
  37   22   23 1
  38   22   44 1
  39   23   24 ar
  40   23   28 ar
  41   24   25 ar
  42   24   30 1
  43   25   26 ar
  44   25   45 1
  45   26   27 ar
  46   26   29 1
  47   27   28 ar
  48   27   46 1
  49   28   47 1
  50   31   32 1
  51   31   48 1
  52   31   49 1
  53   32   50 1
  54   32   51 1
  55   32   52 1

#	End of record

