#	Name: ASD01810670
#	Creating user name:	WinNT
#	Creation time:	15. 06. 2019 19:25

#	Modifying user name:	WinNT
#	Modification time:	15. 06. 2019 19:25

#	Program:	/corina/corina34_cracker 3.40 0067  02.08.2006

@<TRIPOS>MOLECULE
ASD01810670
  70   75    0    0    0
SMALL
NO_CHARGES


@<TRIPOS>ATOM
   1 C1            -0.1774     1.9890     0.5197 C.ar    
   2 C2             0.0704     0.6150     0.5339 C.ar    
   3 C3            -0.9731    -0.2794     0.3980 C.ar    
   4 C4            -2.2669     0.1776     0.2468 C.ar    
   5 C5            -2.5287     1.5497     0.2305 C.ar    
   6 C6            -1.4813     2.4571     0.3733 C.ar    
   7 C7            -3.9149     2.0377     0.0675 C.2     
   8 N8            -4.4477     2.8714     0.9826 N.am    
   9 O9            -4.5738     1.6870    -0.8918 O.2     
  10 C10           -5.8500     3.2980     0.8800 C.3     
  11 C11           -3.6392     3.3661     2.1053 C.3     
  12 C12           -4.3745     3.0618     3.4142 C.3     
  13 C13           -5.7864     3.6487     3.3499 C.3     
  14 C14           -6.5559     2.9946     2.2052 C.3     
  15 C15           -6.5012     3.3807     4.6493 C.ar    
  16 C16           -7.6614     4.0712     4.9521 C.ar    
  17 C17           -8.3210     3.8306     6.1395 C.ar    
  18 C18           -7.8153     2.8876     7.0367 C.ar    
  19 C19           -6.6440     2.1944     6.7246 C.ar    
  20 C20           -5.9975     2.4412     5.5313 C.ar    
  21 C21            0.9415     2.9455     0.6659 C.2     
  22 N22            2.1865     2.6171     0.9178 N.2     
  23 C23            2.9445     3.7262     0.9874 C.ar    
  24 C24            2.0962     4.8298     0.7595 C.ar    
  25 N25            0.8341     4.3043     0.5531 N.pl3   
  26 C26            4.3019     3.9731     1.2225 C.ar    
  27 C27            4.7489     5.2826     1.2210 C.ar    
  28 N28            3.9155     6.2923     1.0023 N.ar    
  29 C29            2.6289     6.1067     0.7766 C.ar    
  30 C30            1.4797     0.1069     0.6974 C.3     
  31 C31           -3.3993    -0.8057     0.0987 C.3     
  32 C32           -8.4945     2.6330     8.2714 C.1     
  33 N33           -9.0333     2.4310     9.2508 N.1     
  34 F34           -5.7081     5.0292     3.1375 F       
  35 N35            6.0975     5.5461     1.4534 N.3     
  36 C36            6.3679     6.9948     1.4103 C.3     
  37 C37            7.0090     7.3807     2.7599 C.3     
  38 C38            7.5859     6.0340     3.2705 C.3     
  39 C39            6.5189     5.0276     2.7723 C.3     
  40 H40           -0.7760    -1.3412     0.4096 H       
  41 H41           -1.6782     3.5189     0.3614 H       
  42 H42           -5.8925     4.3687     0.6801 H       
  43 H43           -6.3393     2.7537     0.0723 H       
  44 H44           -2.6704     2.8667     2.1058 H       
  45 H45           -3.4978     4.4424     2.0073 H       
  46 H46           -4.4352     1.9826     3.5550 H       
  47 H47           -3.8327     3.5080     4.2481 H       
  48 H48           -7.5693     3.3946     2.1727 H       
  49 H49           -6.5947     1.9166     2.3621 H       
  50 H50           -8.0512     4.8005     4.2575 H       
  51 H51           -9.2263     4.3705     6.3749 H       
  52 H52           -6.2473     1.4641     7.4142 H       
  53 H53           -5.0915     1.9058     5.2887 H       
  54 H54            0.0242     4.8052     0.3689 H       
  55 H55            4.9869     3.1576     1.4020 H       
  56 H56            1.9869     6.9577     0.6035 H       
  57 H57            1.7332     0.0736     1.7570 H       
  58 H58            1.5563    -0.8945     0.2738 H       
  59 H59            2.1688     0.7741     0.1797 H       
  60 H60           -3.7389    -1.1202     1.0855 H       
  61 H61           -4.2234    -0.3330    -0.4356 H       
  62 H62           -3.0546    -1.6751    -0.4611 H       
  63 H63            7.0560     7.2195     0.5953 H       
  64 H64            5.4354     7.5422     1.2728 H       
  65 H65            7.8054     8.1104     2.6137 H       
  66 H66            6.2560     7.7633     3.4489 H       
  67 H67            8.5568     5.8291     2.8193 H       
  68 H68            7.6530     6.0254     4.3584 H       
  69 H69            5.6721     5.0018     3.4581 H       
  70 H70            6.9542     4.0337     2.6679 H       
@<TRIPOS>BOND
   1    1    2 ar
   2    1   21 1
   3    1    6 ar
   4    2    3 ar
   5    2   30 1
   6    3    4 ar
   7    3   40 1
   8    4    5 ar
   9    4   31 1
  10    5    6 ar
  11    5    7 1
  12    6   41 1
  13    7    8 am
  14    7    9 2
  15    8   10 1
  16    8   11 1
  17   10   14 1
  18   10   42 1
  19   10   43 1
  20   11   12 1
  21   11   44 1
  22   11   45 1
  23   12   13 1
  24   12   46 1
  25   12   47 1
  26   13   14 1
  27   13   15 1
  28   13   34 1
  29   14   48 1
  30   14   49 1
  31   15   16 ar
  32   15   20 ar
  33   16   17 ar
  34   16   50 1
  35   17   18 ar
  36   17   51 1
  37   18   19 ar
  38   18   32 1
  39   19   20 ar
  40   19   52 1
  41   20   53 1
  42   21   22 2
  43   21   25 1
  44   22   23 1
  45   23   24 ar
  46   23   26 ar
  47   24   25 1
  48   24   29 ar
  49   25   54 1
  50   26   27 ar
  51   26   55 1
  52   27   28 ar
  53   27   35 1
  54   28   29 ar
  55   29   56 1
  56   30   57 1
  57   30   58 1
  58   30   59 1
  59   31   60 1
  60   31   61 1
  61   31   62 1
  62   32   33 3
  63   35   36 1
  64   35   39 1
  65   36   37 1
  66   36   63 1
  67   36   64 1
  68   37   38 1
  69   37   65 1
  70   37   66 1
  71   38   39 1
  72   38   67 1
  73   38   68 1
  74   39   69 1
  75   39   70 1

#	End of record

