#	Name: ASD01812848
#	Creating user name:	WinNT
#	Creation time:	15. 06. 2019 19:29

#	Modifying user name:	WinNT
#	Modification time:	15. 06. 2019 19:29

#	Program:	/corina/corina34_cracker 3.40 0067  02.08.2006

@<TRIPOS>MOLECULE
ASD01812848
  52   56    0    0    0
SMALL
NO_CHARGES


@<TRIPOS>ATOM
   1 N1            -0.0158     1.3130     0.0093 N.ar    
   2 C2             0.0021    -0.0041     0.0020 C.ar    
   3 N3             1.1297    -0.6935    -0.0125 N.ar    
   4 C4             2.2938    -0.0791    -0.0203 C.ar    
   5 C5             2.3344     1.3181    -0.0132 C.ar    
   6 C6             1.1137     2.0142     0.0022 C.ar    
   7 C7             3.7270    -0.5439    -0.0369 C.3     
   8 N8             4.5519     0.6705    -0.0385 N.am    
   9 C9             3.7403     1.7432    -0.0248 C.2     
  10 C10            6.0164     0.7080    -0.0524 C.3     
  11 C11            6.5049     0.7281    -1.4778 C.ar    
  12 C12            6.5013     1.9150    -2.1921 C.ar    
  13 C13            6.9493     1.9376    -3.5001 C.ar    
  14 C14            7.4038     0.7649    -4.0976 C.ar    
  15 C15            7.4048    -0.4256    -3.3736 C.ar    
  16 C16            6.9607    -0.4372    -2.0668 C.ar    
  17 O17            1.0885     3.3666     0.0093 O.3     
  18 O18            4.1167     2.8994    -0.0226 O.2     
  19 C19           -0.1240     3.9826     0.0237 C.ar    
  20 C20           -0.7330     4.2916     1.2327 C.ar    
  21 C21           -1.9666     4.9183     1.2440 C.ar    
  22 C22           -2.5930     5.2363     0.0532 C.ar    
  23 C23           -1.9895     4.9295    -1.1523 C.ar    
  24 C24           -0.7529     4.3089    -1.1705 C.ar    
  25 F25           -0.1609     4.0152    -2.3488 F       
  26 F26           -0.1220     3.9804     2.3968 F       
  27 C27            7.2320     1.3214    -6.5716 C.2     
  28 C28            7.8855     0.7828    -5.5019 C.2     
  29 C29            9.1006     0.2476    -5.9719 C.2     
  30 N30            9.1658     0.4583    -7.2599 N.2     
  31 N31            8.0047     1.1308    -7.6599 N.pl3   
  32 C32            7.6843     1.5535    -9.0255 C.3     
  33 F33            6.0594     3.0514    -1.6104 F       
  34 C34           10.1440    -0.4467    -5.1351 C.3     
  35 H35           -0.9363    -0.5387     0.0085 H       
  36 H36            3.9382    -1.1391     0.8515 H       
  37 H37            3.9206    -1.1295    -0.9357 H       
  38 H38            6.3618     1.6043     0.4628 H       
  39 H39            6.4072    -0.1751     0.4532 H       
  40 H40            6.9462     2.8628    -4.0572 H       
  41 H41            7.7562    -1.3375    -3.8332 H       
  42 H42            6.9656    -1.3591    -1.5043 H       
  43 H43           -2.4409     5.1589     2.1839 H       
  44 H44           -3.5560     5.7250     0.0646 H       
  45 H45           -2.4817     5.1786    -2.0808 H       
  46 H46            6.2681     1.8082    -6.5511 H       
  47 H47            8.0675     2.5599    -9.1936 H       
  48 H48            8.1439     0.8663    -9.7359 H       
  49 H49            6.6030     1.5487    -9.1631 H       
  50 H50            9.9326    -1.5155    -5.1039 H       
  51 H51           11.1287    -0.2838    -5.5733 H       
  52 H52           10.1256    -0.0430    -4.1228 H       
@<TRIPOS>BOND
   1    1    2 ar
   2    1    6 ar
   3    2    3 ar
   4    2   35 1
   5    3    4 ar
   6    4    7 1
   7    4    5 ar
   8    5    6 ar
   9    5    9 1
  10    6   17 1
  11    7    8 1
  12    7   36 1
  13    7   37 1
  14    8    9 am
  15    8   10 1
  16    9   18 2
  17   10   11 1
  18   10   38 1
  19   10   39 1
  20   11   12 ar
  21   11   16 ar
  22   12   13 ar
  23   12   33 1
  24   13   14 ar
  25   13   40 1
  26   14   15 ar
  27   14   28 1
  28   15   16 ar
  29   15   41 1
  30   16   42 1
  31   17   19 1
  32   19   20 ar
  33   19   24 ar
  34   20   21 ar
  35   20   26 1
  36   21   22 ar
  37   21   43 1
  38   22   23 ar
  39   22   44 1
  40   23   24 ar
  41   23   45 1
  42   24   25 1
  43   27   28 2
  44   27   31 1
  45   27   46 1
  46   28   29 1
  47   29   30 2
  48   29   34 1
  49   30   31 1
  50   31   32 1
  51   32   47 1
  52   32   48 1
  53   32   49 1
  54   34   50 1
  55   34   51 1
  56   34   52 1

#	End of record

