#	Name: ASD01410736
#	Creating user name:	WinNT
#	Creation time:	15. 06. 2019 19:18

#	Modifying user name:	WinNT
#	Modification time:	15. 06. 2019 19:18

#	Program:	/corina/corina34_cracker 3.40 0067  02.08.2006

@<TRIPOS>MOLECULE
ASD01410736
 127  134    0    0    0
SMALL
NO_CHARGES


@<TRIPOS>ATOM
   1 C1             0.2828     0.5169    -0.0299 C.3     
   2 C2             0.0369    -0.6270     0.9811 C.3     
   3 N3             0.1414     0.0215     2.3046 N.am    
   4 C4            -0.2152     1.4380     2.1571 C.3     
   5 C5            -0.4643     1.6940     0.6547 C.3     
   6 O6             1.6779     0.7988    -0.1570 O.3     
   7 C7            -1.4666     1.7358     2.9421 C.2     
   8 O8            -2.0143     0.8531     3.5681 O.2     
   9 N9            -1.9772     2.9831     2.9486 N.am    
  10 C10            1.1662    -1.6583     0.8799 C.3     
  11 C11            1.0822    -1.9973     3.4017 C.3     
  12 C12            0.5384    -0.5966     3.4297 C.2     
  13 O13            0.4567    -0.0120     4.4892 O.2     
  14 C14            0.2258    -2.8852     4.3067 C.3     
  15 O15            0.1375    -2.2966     5.6059 O.3     
  16 C16           -3.2519     3.2494     3.6198 C.3     
  17 C17           -4.4593     2.5869     3.0081 C.2     
  18 N18           -4.3481     1.9364     1.8329 N.am    
  19 O19           -5.5312     2.6392     3.5732 O.2     
  20 S20           -5.6967     1.3149     1.0998 S.o2    
  21 C21           -6.6938     2.7702     0.6776 C.3     
  22 C22           -3.2291     3.4101     5.1412 C.3     
  23 C23           -3.4457     4.6322     4.2453 C.3     
  24 C24           -8.0815     2.5269     0.0811 C.3     
  25 C25           -7.9447     3.0372     1.5170 C.3     
  26 O26           -5.2001     0.6921    -0.0770 O.2     
  27 O27           -6.3308     0.5546     2.1191 O.2     
  28 C28           -4.4162     2.8943     5.9132 C.2     
  29 C29           -4.2535     1.9624     6.8194 C.2     
  30 C30            2.0831     1.3968    -1.3048 C.ar    
  31 C31            3.4473     1.7011    -1.5225 C.ar    
  32 C32            1.1828     1.7172    -2.2867 C.ar    
  33 C33            1.6270     2.3349    -3.4638 C.ar    
  34 N34            2.9039     2.6198    -3.6555 N.ar    
  35 C35            3.8283     2.3263    -2.7355 C.ar    
  36 C36            0.6457     2.6752    -4.5152 C.2     
  37 C37            5.1829     2.6347    -2.9508 C.ar    
  38 C38            6.1135     2.3211    -1.9854 C.ar    
  39 C39            5.7262     1.6994    -0.7949 C.ar    
  40 C40            4.4204     1.3949    -0.5603 C.ar    
  41 Cl41           5.6795     3.4058    -4.4247 Cl      
  42 O42            7.4229     2.6188    -2.1926 O.3     
  43 C43            8.3401     2.2686    -1.1543 C.3     
  44 C44           -1.1771    -3.0184     3.7108 C.3     
  45 N45            0.9235     3.2483    -5.6514 N.2     
  46 C46            9.7559     2.6786    -1.5647 C.3     
  47 N47            9.8303     4.1418    -1.6718 N.3     
  48 C48           11.2220     4.5883    -1.8304 C.3     
  49 C49           -0.0781     3.4751    -6.4664 C.2     
  50 C50           -1.2839     3.0870    -6.0315 C.2     
  51 S51           -1.0866     2.3639    -4.4361 S.3     
  52 C52            0.1152     4.1320    -7.8088 C.3     
  53 C53            0.2548     3.0562    -8.8877 C.3     
  54 C54           -1.0937     5.0156    -8.1231 C.3     
  55 C55           11.2481     6.1098    -1.9978 C.3     
  56 O56           10.6089     6.7192    -0.8730 O.3     
  57 C57            9.2517     6.3072    -0.6891 C.3     
  58 C58            9.2054     4.7877    -0.5084 C.3     
  59 C59           -0.0109    -3.2448     6.6647 C.3     
  60 N60            1.0718    -2.5446     2.0469 N.am    
  61 O61            0.8435    -4.3800     0.6246 O.3     
  62 C62            0.7443    -5.8237     0.5055 C.3     
  63 C63           -0.4798    -6.3164     1.2800 C.3     
  64 C64            0.6021    -6.2052    -0.9694 C.3     
  65 C65            2.0059    -6.4708     1.0803 C.3     
  66 C66            0.9745    -3.8767     1.8664 C.2     
  67 O67            1.0051    -4.6235     2.8245 O.2     
  68 H68           -0.1574     0.2840    -0.9995 H       
  69 H69           -0.9437    -1.0805     0.8367 H       
  70 H70            0.6039     2.0651     2.5092 H       
  71 H71           -0.0377     2.6499     0.3508 H       
  72 H72           -1.5300     1.6572     0.4291 H       
  73 H73           -1.5006     3.7045     2.5089 H       
  74 H74            1.0539    -2.2398    -0.0352 H       
  75 H75            2.1307    -1.1505     0.8792 H       
  76 H76            2.1062    -1.9900     3.7750 H       
  77 H77            0.6824    -3.8718     4.3851 H       
  78 H78           -3.4782     1.8323     1.4166 H       
  79 H79           -6.1354     3.6341     0.3170 H       
  80 H80           -2.2658     3.3177     5.6427 H       
  81 H81           -2.6247     5.3438     4.1577 H       
  82 H82           -4.4466     5.0627     4.2146 H       
  83 H83           -8.4363     3.2310    -0.6716 H       
  84 H84           -8.3954     1.4923    -0.0576 H       
  85 H85           -8.1686     2.3383     2.3229 H       
  86 H86           -8.2096     4.0770     1.7090 H       
  87 H87           -5.4010     3.2930     5.7194 H       
  88 H88           -5.1042     1.5928     7.3726 H       
  89 H89           -3.2687     1.5637     7.0132 H       
  90 H90            0.1344     1.4941    -2.1543 H       
  91 H91            6.4715     1.4613    -0.0505 H       
  92 H92            4.1347     0.9148     0.3640 H       
  93 H93            8.0638     2.7863    -0.2357 H       
  94 H94            8.3073     1.1918    -0.9884 H       
  95 H95           -1.6696    -2.0461     3.7203 H       
  96 H96           -1.1032    -3.3783     2.6846 H       
  97 H97           -1.7577    -3.7256     4.3030 H       
  98 H98           10.4663     2.3326    -0.8139 H       
  99 H99            9.9988     2.2309    -2.5284 H       
 100 H100          11.7966     4.3094    -0.9472 H       
 101 H101          11.6570     4.1176    -2.7121 H       
 102 H102          -2.2153     3.1943    -6.5675 H       
 103 H103           1.0169     4.7441    -7.7873 H       
 104 H104          -0.6468     2.4441    -8.9093 H       
 105 H105           0.3947     3.5314    -9.8587 H       
 106 H106           1.1160     2.4267    -8.6639 H       
 107 H107          -1.9953     4.4035    -8.1446 H       
 108 H108          -1.1931     5.7820    -7.3544 H       
 109 H109          -0.9538     5.4908    -9.0940 H       
 110 H110          12.2814     6.4516    -2.0585 H       
 111 H111          10.7190     6.3848    -2.9103 H       
 112 H112           8.8411     6.7918     0.1967 H       
 113 H113           8.6645     6.5879    -1.5635 H       
 114 H114           8.1683     4.4625    -0.4250 H       
 115 H115           9.7477     4.5119     0.3959 H       
 116 H116           0.8473    -3.9167     6.6736 H       
 117 H117          -0.0706    -2.7189     7.6176 H       
 118 H118          -0.9226    -3.8219     6.5104 H       
 119 H119          -1.3786    -5.8554     0.8704 H       
 120 H120          -0.5543    -7.4001     1.1905 H       
 121 H121          -0.3785    -6.0446     2.3307 H       
 122 H122           1.4741    -5.8542    -1.5211 H       
 123 H123           0.5276    -7.2890    -1.0588 H       
 124 H124          -0.2967    -5.7442    -1.3789 H       
 125 H125           2.1072    -6.1990     2.1310 H       
 126 H126           1.9314    -7.5546     0.9909 H       
 127 H127           2.8779    -6.1198     0.5285 H       
@<TRIPOS>BOND
   1    1    2 1
   2    1    6 1
   3    1    5 1
   4    1   68 1
   5    2    3 1
   6    2   10 1
   7    2   69 1
   8    3    4 1
   9    3   12 am
  10    4    5 1
  11    4    7 1
  12    4   70 1
  13    5   71 1
  14    5   72 1
  15    6   30 1
  16    7    8 2
  17    7    9 am
  18    9   16 1
  19    9   73 1
  20   10   60 1
  21   10   74 1
  22   10   75 1
  23   11   12 1
  24   11   14 1
  25   11   60 1
  26   11   76 1
  27   12   13 2
  28   14   15 1
  29   14   44 1
  30   14   77 1
  31   15   59 1
  32   16   17 1
  33   16   22 1
  34   16   23 1
  35   17   18 am
  36   17   19 2
  37   18   20 am
  38   18   78 1
  39   20   21 1
  40   20   26 2
  41   20   27 2
  42   21   24 1
  43   21   25 1
  44   21   79 1
  45   22   23 1
  46   22   28 1
  47   22   80 1
  48   23   81 1
  49   23   82 1
  50   24   25 1
  51   24   83 1
  52   24   84 1
  53   25   85 1
  54   25   86 1
  55   28   29 2
  56   28   87 1
  57   29   88 1
  58   29   89 1
  59   30   31 ar
  60   30   32 ar
  61   31   35 ar
  62   31   40 ar
  63   32   33 ar
  64   32   90 1
  65   33   34 ar
  66   33   36 1
  67   34   35 ar
  68   35   37 ar
  69   36   45 2
  70   36   51 1
  71   37   38 ar
  72   37   41 1
  73   38   39 ar
  74   38   42 1
  75   39   40 ar
  76   39   91 1
  77   40   92 1
  78   42   43 1
  79   43   46 1
  80   43   93 1
  81   43   94 1
  82   44   95 1
  83   44   96 1
  84   44   97 1
  85   45   49 1
  86   46   47 1
  87   46   98 1
  88   46   99 1
  89   47   48 1
  90   47   58 1
  91   48   55 1
  92   48  100 1
  93   48  101 1
  94   49   50 2
  95   49   52 1
  96   50   51 1
  97   50  102 1
  98   52   53 1
  99   52   54 1
 100   52  103 1
 101   53  104 1
 102   53  105 1
 103   53  106 1
 104   54  107 1
 105   54  108 1
 106   54  109 1
 107   55   56 1
 108   55  110 1
 109   55  111 1
 110   56   57 1
 111   57   58 1
 112   57  112 1
 113   57  113 1
 114   58  114 1
 115   58  115 1
 116   59  116 1
 117   59  117 1
 118   59  118 1
 119   60   66 am
 120   61   62 1
 121   61   66 1
 122   62   63 1
 123   62   64 1
 124   62   65 1
 125   63  119 1
 126   63  120 1
 127   63  121 1
 128   64  122 1
 129   64  123 1
 130   64  124 1
 131   65  125 1
 132   65  126 1
 133   65  127 1
 134   66   67 2

#	End of record

