#	Name: ASD01208052
#	Creating user name:	WinNT
#	Creation time:	15. 06. 2019 19:09

#	Modifying user name:	WinNT
#	Modification time:	15. 06. 2019 19:09

#	Program:	/corina/corina34_cracker 3.40 0067  02.08.2006

@<TRIPOS>MOLECULE
ASD01208052
  58   61    0    0    0
SMALL
NO_CHARGES


@<TRIPOS>ATOM
   1 C1            -0.0888     1.4350     0.0248 C.ar    
   2 C2             0.0154     0.0522    -0.0175 C.ar    
   3 C3            -1.1266    -0.7355     0.0263 C.ar    
   4 C4            -2.3756    -0.1435     0.1129 C.ar    
   5 C5            -2.4849     1.2474     0.1561 C.ar    
   6 C6            -1.3336     2.0353     0.1167 C.ar    
   7 C7            -3.8153     1.8836     0.2480 C.2     
   8 C8            -4.0566     3.2265     0.2969 C.2     
   9 N9            -5.0170     1.2260     0.2927 N.pl3   
  10 C10           -6.0215     2.1592     0.3762 C.2     
  11 C11           -5.4398     3.4082     0.3799 C.2     
  12 O12            1.0327     2.2015    -0.0184 O.3     
  13 C13            0.8487     3.6165    -0.0965 C.3     
  14 C14            2.0796     4.2559    -0.7422 C.3     
  15 O15            3.2141     4.0685     0.1063 O.3     
  16 C16            0.6581     4.1845     1.3112 C.3     
  17 O17           -1.0190    -2.0894    -0.0163 O.3     
  18 C18           -1.4888    -2.7324    -1.1174 C.ar    
  19 C19           -1.5232    -4.1193    -1.1507 C.ar    
  20 C20           -1.9402    -2.0034    -2.2081 C.ar    
  21 C21           -2.4178    -2.6595    -3.3262 C.ar    
  22 C22           -2.4466    -4.0413    -3.3586 C.ar    
  23 C23           -2.0016    -4.7703    -2.2709 C.ar    
  24 C24           -7.4629     1.8755     0.4455 C.2     
  25 C25            4.4231     4.6315    -0.4069 C.3     
  26 N26           -8.4085     2.7717     0.5246 N.2     
  27 C27           -9.6441     2.3304     0.5771 C.2     
  28 C28           -9.7913     1.0020     0.5430 C.2     
  29 S29           -8.1915     0.2716     0.4273 S.3     
  30 C30           -1.0385    -4.9144     0.0342 C.3     
  31 C31           -2.9690    -4.7543    -4.5792 C.3     
  32 O32           -1.8927    -4.9932    -5.4884 O.3     
  33 H33            0.9879    -0.4126    -0.0850 H       
  34 H34           -3.2638    -0.7570     0.1465 H       
  35 H35           -1.4137     3.1118     0.1503 H       
  36 H36           -3.3119     4.0084     0.2754 H       
  37 H37           -5.1378     0.2639     0.2690 H       
  38 H38           -5.9577     4.3541     0.4365 H       
  39 H39           -0.0328     3.8355    -0.6992 H       
  40 H40            2.2674     3.7880    -1.7085 H       
  41 H41            1.9034     5.3223    -0.8829 H       
  42 H42            1.5395     3.9655     1.9139 H       
  43 H43            0.5177     5.2638     1.2516 H       
  44 H44           -0.2189     3.7290     1.7712 H       
  45 H45           -1.9187    -0.9239    -2.1829 H       
  46 H46           -2.7694    -2.0925    -4.1754 H       
  47 H47           -2.0251    -5.8497    -2.2988 H       
  48 H48            5.2364     4.4468     0.2949 H       
  49 H49            4.6595     4.1713    -1.3663 H       
  50 H50            4.2955     5.7057    -0.5407 H       
  51 H51          -10.4894     2.9993     0.6440 H       
  52 H52          -10.7296     0.4682     0.5766 H       
  53 H53           -1.8694    -5.0921     0.7169 H       
  54 H54           -0.6387    -5.8690    -0.3078 H       
  55 H55           -0.2568    -4.3571     0.5505 H       
  56 H56           -3.4120    -5.7051    -4.2827 H       
  57 H57           -3.7247    -4.1371    -5.0649 H       
  58 H58           -2.1565    -5.4501    -6.2988 H       
@<TRIPOS>BOND
   1    1    2 ar
   2    1   12 1
   3    1    6 ar
   4    2    3 ar
   5    2   33 1
   6    3    4 ar
   7    3   17 1
   8    4    5 ar
   9    4   34 1
  10    5    6 ar
  11    5    7 1
  12    6   35 1
  13    7    8 2
  14    7    9 1
  15    8   11 1
  16    8   36 1
  17    9   10 1
  18    9   37 1
  19   10   11 2
  20   10   24 1
  21   11   38 1
  22   12   13 1
  23   13   14 1
  24   13   16 1
  25   13   39 1
  26   14   15 1
  27   14   40 1
  28   14   41 1
  29   15   25 1
  30   16   42 1
  31   16   43 1
  32   16   44 1
  33   17   18 1
  34   18   19 ar
  35   18   20 ar
  36   19   30 1
  37   19   23 ar
  38   20   21 ar
  39   20   45 1
  40   21   22 ar
  41   21   46 1
  42   22   23 ar
  43   22   31 1
  44   23   47 1
  45   24   26 2
  46   24   29 1
  47   25   48 1
  48   25   49 1
  49   25   50 1
  50   26   27 1
  51   27   28 2
  52   27   51 1
  53   28   29 1
  54   28   52 1
  55   30   53 1
  56   30   54 1
  57   30   55 1
  58   31   32 1
  59   31   56 1
  60   31   57 1
  61   32   58 1

#	End of record

