#	Name: ASD01881155
#	Creating user name:	WinNT
#	Creation time:	15. 06. 2019 19:42

#	Modifying user name:	WinNT
#	Modification time:	15. 06. 2019 19:42

#	Program:	/corina/corina34_cracker 3.40 0067  02.08.2006

@<TRIPOS>MOLECULE
ASD01881155
  50   52    0    0    0
SMALL
NO_CHARGES


@<TRIPOS>ATOM
   1 Cl1            8.0419     4.6143     0.7367 Cl      
   2 N2            -0.0158     1.3136     0.0093 N.ar    
   3 C3             0.0021    -0.0041     0.0020 C.ar    
   4 N4             1.1321    -0.6824    -0.0120 N.ar    
   5 C5             2.2981    -0.0570    -0.0197 C.ar    
   6 C6             2.3199     1.3290    -0.0130 C.ar    
   7 C7             1.1114     2.0071     0.0022 C.ar    
   8 C8             3.6262     2.0803    -0.0209 C.3     
   9 O9             4.0270     2.3245    -1.3706 O.3     
  10 C10            1.0812     3.5137     0.0096 C.3     
  11 C11            5.1917     2.9962    -1.5555 C.ar    
  12 C12            5.6405     3.2674    -2.8449 C.ar    
  13 C13            6.8181     3.9470    -3.0316 C.ar    
  14 C14            7.5732     4.3706    -1.9326 C.ar    
  15 C15            7.1178     4.0963    -0.6386 C.ar    
  16 C16            5.9315     3.4171    -0.4577 C.ar    
  17 C17            7.5699     4.3921    -4.2613 C.3     
  18 N18            8.7731     5.0797    -3.7790 N.am    
  19 C19            8.7706     5.0647    -2.4350 C.2     
  20 O20            9.6346     5.5546    -1.7336 O.2     
  21 C21           -1.7602    -1.0018    -1.4291 C.3     
  22 C22           -1.3043    -0.7553     0.0105 C.3     
  23 C23            9.4470     7.1439    -4.9043 C.3     
  24 C24            9.8068     5.6836    -4.6234 C.3     
  25 C25            4.0074    -1.0994    -1.4829 C.3     
  26 C26            3.5851    -0.8409    -0.0352 C.3     
  27 H27            3.5022     3.0303     0.4989 H       
  28 H28            4.3894     1.4874     0.4831 H       
  29 H29            1.0637     3.8818    -1.0162 H       
  30 H30            0.1893     3.8567     0.5340 H       
  31 H31            1.9688     3.8925     0.5165 H       
  32 H32            5.0626     2.9430    -3.6976 H       
  33 H33            5.5798     3.2053     0.5412 H       
  34 H34            7.8486     3.5274    -4.8636 H       
  35 H35            6.9571     5.0764    -4.8481 H       
  36 H36           -2.7050    -1.5452    -1.4230 H       
  37 H37           -1.8937    -0.0465    -1.9366 H       
  38 H38           -1.0065    -1.5894    -1.9533 H       
  39 H39           -1.1707    -1.7107     0.5179 H       
  40 H40           -2.0580    -0.1677     0.5347 H       
  41 H41           10.2161     7.5933    -5.5325 H       
  42 H42            8.4864     7.1892    -5.4174 H       
  43 H43            9.3822     7.6897    -3.9630 H       
  44 H44           10.7674     5.6383    -4.1102 H       
  45 H45            9.8717     5.1379    -5.5647 H       
  46 H46            4.1554    -0.1479    -1.9937 H       
  47 H47            4.9383    -1.6664    -1.4941 H       
  48 H48            3.2295    -1.6681    -1.9923 H       
  49 H49            4.3631    -0.2722     0.4741 H       
  50 H50            3.4372    -1.7924     0.4755 H       
@<TRIPOS>BOND
   1    1   15 1
   2    2    3 ar
   3    2    7 ar
   4    3    4 ar
   5    3   22 1
   6    4    5 ar
   7    5    6 ar
   8    5   26 1
   9    6    7 ar
  10    6    8 1
  11    7   10 1
  12    8    9 1
  13    8   27 1
  14    8   28 1
  15    9   11 1
  16   10   29 1
  17   10   30 1
  18   10   31 1
  19   11   12 ar
  20   11   16 ar
  21   12   13 ar
  22   12   32 1
  23   13   14 ar
  24   13   17 1
  25   14   15 ar
  26   14   19 1
  27   15   16 ar
  28   16   33 1
  29   17   18 1
  30   17   34 1
  31   17   35 1
  32   18   19 am
  33   18   24 1
  34   19   20 2
  35   21   22 1
  36   21   36 1
  37   21   37 1
  38   21   38 1
  39   22   39 1
  40   22   40 1
  41   23   24 1
  42   23   41 1
  43   23   42 1
  44   23   43 1
  45   24   44 1
  46   24   45 1
  47   25   26 1
  48   25   46 1
  49   25   47 1
  50   25   48 1
  51   26   49 1
  52   26   50 1

#	End of record

