#	Name: ASD05130092
#	Creating user name:	WinNT
#	Creation time:	15. 06. 2019 20:56

#	Modifying user name:	WinNT
#	Modification time:	15. 06. 2019 20:56

#	Program:	/corina/corina34_cracker 3.40 0067  02.08.2006

@<TRIPOS>MOLECULE
ASD05130092
  54   57    0    0    0
SMALL
NO_CHARGES


@<TRIPOS>ATOM
   1 N1            -0.0588     1.4056    -0.0050 N.am    
   2 C2             0.0129     0.2105     0.6139 C.2     
   3 O3             1.0797    -0.1927     1.0357 O.2     
   4 N4            -1.0978    -0.5378     0.7651 N.am    
   5 C5            -1.0081    -1.8198     1.3218 C.ar    
   6 C6            -1.8443    -2.8355     0.8707 C.ar    
   7 C7            -1.7536    -4.1001     1.4221 C.ar    
   8 C8            -0.8327    -4.3556     2.4218 C.ar    
   9 C9             0.0008    -3.3466     2.8733 C.ar    
  10 C10           -0.0809    -2.0806     2.3205 C.ar    
  11 F11            0.8989    -3.5998     3.8503 F       
  12 F12           -2.7448    -2.5865    -0.1052 F       
  13 C13            1.0781     2.2205    -0.0889 C.ar    
  14 C14            0.9381     3.5995    -0.2138 C.ar    
  15 C15            2.0583     4.4074    -0.2974 C.ar    
  16 C16            3.3215     3.8491    -0.2569 C.ar    
  17 C17            3.4699     2.4673    -0.1314 C.ar    
  18 C18            2.3412     1.6539    -0.0419 C.ar    
  19 F19           -0.2947     4.1508    -0.2539 F       
  20 N20            6.8716     1.4311     1.1635 N.am    
  21 C21            5.6405     1.9774     1.1228 C.2     
  22 C22            4.8236     1.8666    -0.0878 C.2     
  23 C23            5.3185     1.2044    -1.1780 C.2     
  24 C24            6.6141     0.6392    -1.1106 C.ar    
  25 C25            7.1603    -0.0466    -2.2025 C.ar    
  26 N26            8.3662    -0.5656    -2.1235 N.ar    
  27 C27            9.1092    -0.4664    -1.0264 C.ar    
  28 C28            8.6450     0.1962     0.1010 C.ar    
  29 C29            7.3765     0.7636     0.0715 C.ar    
  30 O30            5.2052     2.5654     2.0968 O.2     
  31 N31           10.3737    -1.0368    -1.0076 N.pl3   
  32 C32           11.2049    -0.9359     0.1946 C.3     
  33 C33            7.6813     1.5540     2.3782 C.3     
  34 C34            7.4005     0.3661     3.3007 C.3     
  35 Cl35           4.7240     4.8667    -0.3627 Cl      
  36 H36           -0.8964     1.7000    -0.3958 H       
  37 H37           -1.9594    -0.1884     0.4883 H       
  38 H38           -2.4027    -4.8890     1.0721 H       
  39 H39           -0.7639    -5.3442     2.8512 H       
  40 H40            0.5730    -1.2951     2.6695 H       
  41 H41            1.9449     5.4770    -0.3949 H       
  42 H42            2.4513     0.5843     0.0594 H       
  43 H43            4.7281     1.1140    -2.0778 H       
  44 H44            6.5889    -0.1500    -3.1131 H       
  45 H45            9.2590     0.2700     0.9864 H       
  46 H46           10.7074    -1.5024    -1.7903 H       
  47 H47           12.1560    -1.4396     0.0220 H       
  48 H48           11.3863     0.1142     0.4238 H       
  49 H49           10.6910    -1.4072     1.0323 H       
  50 H50            8.7380     1.5646     2.1110 H       
  51 H51            7.4271     2.4810     2.8921 H       
  52 H52            7.6547    -0.5610     2.7868 H       
  53 H53            8.0029     0.4575     4.2045 H       
  54 H54            6.3438     0.3554     3.5679 H       
@<TRIPOS>BOND
   1    1    2 am
   2    1   13 1
   3    1   36 1
   4    2    3 2
   5    2    4 am
   6    4    5 1
   7    4   37 1
   8    5    6 ar
   9    5   10 ar
  10    6    7 ar
  11    6   12 1
  12    7    8 ar
  13    7   38 1
  14    8    9 ar
  15    8   39 1
  16    9   10 ar
  17    9   11 1
  18   10   40 1
  19   13   14 ar
  20   13   18 ar
  21   14   15 ar
  22   14   19 1
  23   15   16 ar
  24   15   41 1
  25   16   17 ar
  26   16   35 1
  27   17   18 ar
  28   17   22 1
  29   18   42 1
  30   20   21 am
  31   20   29 1
  32   20   33 1
  33   21   22 1
  34   21   30 2
  35   22   23 2
  36   23   24 1
  37   23   43 1
  38   24   25 ar
  39   24   29 ar
  40   25   26 ar
  41   25   44 1
  42   26   27 ar
  43   27   28 ar
  44   27   31 1
  45   28   29 ar
  46   28   45 1
  47   31   32 1
  48   31   46 1
  49   32   47 1
  50   32   48 1
  51   32   49 1
  52   33   34 1
  53   33   50 1
  54   33   51 1
  55   34   52 1
  56   34   53 1
  57   34   54 1

#	End of record

