#	Name: ASD01700019
#	Creating user name:	WinNT
#	Creation time:	15. 06. 2019 19:22

#	Modifying user name:	WinNT
#	Modification time:	15. 06. 2019 19:22

#	Program:	/corina/corina34_cracker 3.40 0067  02.08.2006

@<TRIPOS>MOLECULE
ASD01700019
  61   64    0    0    0
SMALL
NO_CHARGES


@<TRIPOS>ATOM
   1 C1            -0.0645     2.0031    -1.9443 C.2     
   2 N2            -0.0524     0.6776    -2.1879 N.am    
   3 O3             0.9292     2.6713    -2.1635 O.2     
   4 C4             1.1165     0.0316    -2.8058 C.3     
   5 N5            -6.0314     6.7197    -5.4495 N.ar    
   6 O6             0.3564    -2.0058    -1.7532 O.3     
   7 C7             1.5066    -1.1804    -1.9522 C.3     
   8 O8            -7.5897     5.7602    -1.4594 O.3     
   9 C9            -0.6974    -1.3693    -1.0337 C.3     
  10 C10           -1.2053    -0.1674    -1.8383 C.3     
  11 C11           -1.2725     2.6392    -1.4226 C.2     
  12 C12           -1.2537     3.9460    -1.0799 C.2     
  13 C13           -2.4675     4.5852    -0.5557 C.ar    
  14 C14           -2.4463     5.9361    -0.1866 C.ar    
  15 C15           -1.1772     6.7367    -0.3268 C.3     
  16 C16           -3.5774     6.5271     0.3000 C.ar    
  17 C17           -3.5558     7.9807     0.6970 C.3     
  18 C18           -4.7512     5.7879     0.4296 C.ar    
  19 C19           -7.4282     5.2973     0.8758 C.ar    
  20 C20           -7.8391     4.5616     1.9783 C.ar    
  21 C21           -8.8008     3.5794     1.8336 C.ar    
  22 C22           -9.3552     3.3273     0.5926 C.ar    
  23 C23           -8.9504     4.0562    -0.5112 C.ar    
  24 C24           -7.9880     5.0423    -0.3753 C.ar    
  25 C25           -8.2066     5.4442    -2.7090 C.3     
  26 C26           -7.6439     6.3350    -3.7865 C.ar    
  27 C27           -6.5291     5.9458    -4.5051 C.ar    
  28 C28           -6.5705     7.8863    -5.7459 C.ar    
  29 C29           -7.6863     8.3415    -5.0698 C.ar    
  30 C30           -8.2381     7.5550    -4.0698 C.ar    
  31 C31           -4.7764     4.4434     0.0639 C.ar    
  32 C32           -3.6514     3.8468    -0.4289 C.ar    
  33 F33           -0.4333     6.2465    -1.4054 F       
  34 F34           -1.4959     8.0802    -0.5523 F       
  35 F35           -0.4244     6.6268     0.8472 F       
  36 F36           -3.6773     8.7781    -0.4461 F       
  37 F37           -4.6218     8.2432     1.5641 F       
  38 F38           -2.3483     8.2702     1.3414 F       
  39 S39           -6.2077     6.5550     1.0580 S.3     
  40 H40            0.8645    -0.2956    -3.8146 H       
  41 H41            1.9474     0.7360    -2.8447 H       
  42 H42            2.2808    -1.7521    -2.4639 H       
  43 H43            1.8820    -0.8403    -0.9871 H       
  44 H44           -1.5151    -2.0747    -0.8858 H       
  45 H45           -0.3260    -1.0332    -0.0656 H       
  46 H46           -1.9111     0.4053    -1.2367 H       
  47 H47           -1.6949    -0.5150    -2.7479 H       
  48 H48           -2.1802     2.0647    -1.3110 H       
  49 H49           -0.3460     4.5205    -1.1915 H       
  50 H50           -7.4074     4.7562     2.9490 H       
  51 H51           -9.1197     3.0071     2.6923 H       
  52 H52          -10.1064     2.5589     0.4844 H       
  53 H53           -9.3852     3.8561    -1.4793 H       
  54 H54           -8.0080     4.4019    -2.9589 H       
  55 H55           -9.2825     5.6010    -2.6331 H       
  56 H56           -6.0605     4.9966    -4.2907 H       
  57 H57           -6.1347     8.4928    -6.5260 H       
  58 H58           -8.1228     9.2981    -5.3166 H       
  59 H59           -9.1102     7.8850    -3.5249 H       
  60 H60           -5.6882     3.8737     0.1665 H       
  61 H61           -3.6729     2.8059    -0.7162 H       
@<TRIPOS>BOND
   1    1    2 am
   2    1    3 2
   3    1   11 1
   4    2    4 1
   5    2   10 1
   6    4    7 1
   7    4   40 1
   8    4   41 1
   9    5   27 ar
  10    5   28 ar
  11    6    7 1
  12    6    9 1
  13    7   42 1
  14    7   43 1
  15    8   24 1
  16    8   25 1
  17    9   10 1
  18    9   44 1
  19    9   45 1
  20   10   46 1
  21   10   47 1
  22   11   12 2
  23   11   48 1
  24   12   13 1
  25   12   49 1
  26   13   14 ar
  27   13   32 ar
  28   14   15 1
  29   14   16 ar
  30   15   33 1
  31   15   34 1
  32   15   35 1
  33   16   17 1
  34   16   18 ar
  35   17   36 1
  36   17   37 1
  37   17   38 1
  38   18   31 ar
  39   18   39 1
  40   19   20 ar
  41   19   24 ar
  42   19   39 1
  43   20   21 ar
  44   20   50 1
  45   21   22 ar
  46   21   51 1
  47   22   23 ar
  48   22   52 1
  49   23   24 ar
  50   23   53 1
  51   25   26 1
  52   25   54 1
  53   25   55 1
  54   26   27 ar
  55   26   30 ar
  56   27   56 1
  57   28   29 ar
  58   28   57 1
  59   29   30 ar
  60   29   58 1
  61   30   59 1
  62   31   32 ar
  63   31   60 1
  64   32   61 1

#	End of record

