#	Name: ASD07300404
#	Creating user name:	WinNT
#	Creation time:	15. 06. 2019 21:09

#	Modifying user name:	WinNT
#	Modification time:	15. 06. 2019 21:09

#	Program:	/corina/corina34_cracker 3.40 0067  02.08.2006

@<TRIPOS>MOLECULE
ASD07300404
  31   32    0    0    0
SMALL
NO_CHARGES


@<TRIPOS>ATOM
   1 C1            -0.1277     1.3728     0.0007 C.ar    
   2 C2             0.2546     0.6248    -1.1085 C.ar    
   3 C3             1.4276    -0.1059    -1.0551 C.ar    
   4 C4             2.1821    -0.0640     0.1102 C.ar    
   5 C5             1.7430     0.6995     1.1729 C.ar    
   6 N6             0.6191     1.3868     1.0938 N.ar    
   7 N7            -1.3013     2.1165    -0.0413 N.3     
   8 N8            -0.5121     0.6120    -2.2256 N.pl3   
   9 O9            -0.1175     0.0448    -3.2287 O.2     
  10 O10           -1.5960     1.1677    -2.2268 O.2     
  11 C11           -2.2814     1.6085     0.9278 C.3     
  12 C12           -1.0292     3.5425     0.1834 C.3     
  13 C13           -2.2717     4.3433    -0.1100 C.ar    
  14 C14           -3.1847     4.5962     0.8967 C.ar    
  15 C15           -4.3244     5.3307     0.6275 C.ar    
  16 C16           -4.5509     5.8126    -0.6481 C.ar    
  17 C17           -3.6375     5.5605    -1.6546 C.ar    
  18 C18           -2.4956     4.8297    -1.3844 C.ar    
  19 H19            1.7495    -0.6961    -1.9003 H       
  20 H20            3.1029    -0.6235     0.1842 H       
  21 H21            2.3266     0.7349     2.0809 H       
  22 H22           -1.8431     1.6158     1.9258 H       
  23 H23           -3.1673     2.2434     0.9155 H       
  24 H24           -2.5612     0.5892     0.6614 H       
  25 H25           -0.7340     3.6969     1.2212 H       
  26 H26           -0.2238     3.8669    -0.4755 H       
  27 H27           -3.0077     4.2196     1.8933 H       
  28 H28           -5.0381     5.5277     1.4138 H       
  29 H29           -5.4417     6.3859    -0.8585 H       
  30 H30           -3.8146     5.9367    -2.6513 H       
  31 H31           -1.7801     4.6358    -2.1698 H       
@<TRIPOS>BOND
   1    1    2 ar
   2    1    6 ar
   3    1    7 1
   4    2    3 ar
   5    2    8 1
   6    3    4 ar
   7    3   19 1
   8    4    5 ar
   9    4   20 1
  10    5    6 ar
  11    5   21 1
  12    7   11 1
  13    7   12 1
  14    8    9 2
  15    8   10 2
  16   11   22 1
  17   11   23 1
  18   11   24 1
  19   12   13 1
  20   12   25 1
  21   12   26 1
  22   13   14 ar
  23   13   18 ar
  24   14   15 ar
  25   14   27 1
  26   15   16 ar
  27   15   28 1
  28   16   17 ar
  29   16   29 1
  30   17   18 ar
  31   17   30 1
  32   18   31 1

#	End of record

