#	Name: ASD02408017
#	Creating user name:	WinNT
#	Creation time:	15. 06. 2019 20:20

#	Modifying user name:	WinNT
#	Modification time:	15. 06. 2019 20:20

#	Program:	/corina/corina34_cracker 3.40 0067  02.08.2006

@<TRIPOS>MOLECULE
ASD02408017
  29   30    0    0    0
SMALL
NO_CHARGES


@<TRIPOS>ATOM
   1 C1            -0.0167     1.3775     0.0096 C.ar    
   2 C2             0.0021    -0.0041     0.0020 C.ar    
   3 C3             1.2779     2.1490     0.0014 C.3     
   4 C4             1.5697     2.6256    -1.3981 C.2     
   5 N5             2.6900     3.3403    -1.6224 N.am    
   6 N6             0.7319     2.3280    -2.3533 N.2     
   7 C7             0.9402     2.7244    -3.6162 C.2     
   8 C8             2.0876     3.4784    -3.9196 C.2     
   9 C9             2.9832     3.7833    -2.8631 C.2     
  10 S10           -0.2106     2.3051    -4.8828 S.3     
  11 O11            3.9930     4.4338    -3.0702 O.2     
  12 C12           -1.1855    -0.7122     0.0091 C.ar    
  13 C13           -2.3927    -0.0390     0.0239 C.ar    
  14 C14           -2.4139     1.3430     0.0320 C.ar    
  15 C15           -1.2255     2.0530     0.0190 C.ar    
  16 C16           -1.4193     1.3704    -3.9124 C.3     
  17 F17           -1.2450     3.4039     0.0274 F       
  18 C18            2.3466     3.9212    -5.2565 C.1     
  19 N19            2.5520     4.2724    -6.3172 N.1     
  20 H20            0.9447    -0.5311    -0.0098 H       
  21 H21            1.1933     3.0077     0.6674 H       
  22 H22            2.0876     1.5036     0.3417 H       
  23 H23            3.2901     3.5381    -0.8865 H       
  24 H24           -1.1699    -1.7920     0.0028 H       
  25 H25           -3.3197    -0.5931     0.0287 H       
  26 H26           -3.3572     1.8687     0.0431 H       
  27 H27           -2.2225     1.0280    -4.5649 H       
  28 H28           -0.9308     0.5099    -3.4551 H       
  29 H29           -1.8324     2.0104    -3.1328 H       
@<TRIPOS>BOND
   1    1    2 ar
   2    1    3 1
   3    1   15 ar
   4    2   12 ar
   5    2   20 1
   6    3    4 1
   7    3   21 1
   8    3   22 1
   9    4    5 1
  10    4    6 2
  11    5    9 am
  12    5   23 1
  13    6    7 1
  14    7    8 2
  15    7   10 1
  16    8    9 1
  17    8   18 1
  18    9   11 2
  19   10   16 1
  20   12   13 ar
  21   12   24 1
  22   13   14 ar
  23   13   25 1
  24   14   15 ar
  25   14   26 1
  26   15   17 1
  27   16   27 1
  28   16   28 1
  29   16   29 1
  30   18   19 3

#	End of record

