#	Name: ASD01140284
#	Creating user name:	WinNT
#	Creation time:	15. 06. 2019 19:00

#	Modifying user name:	WinNT
#	Modification time:	15. 06. 2019 19:00

#	Program:	/corina/corina34_cracker 3.40 0067  02.08.2006

@<TRIPOS>MOLECULE
ASD01140284
  39   42    0    0    0
SMALL
NO_CHARGES


@<TRIPOS>ATOM
   1 C1            -0.0169     1.3939     0.0097 C.ar    
   2 C2             0.0021    -0.0041     0.0020 C.ar    
   3 C3             1.2197    -0.6844     0.0058 C.ar    
   4 C4             2.4026     0.0366     0.0161 C.ar    
   5 C5             2.3791     1.4462    -0.0141 C.ar    
   6 C6             1.1603     2.1102     0.0023 C.ar    
   7 C7             3.7236    -0.6492     0.0940 C.2     
   8 N8             4.6015    -0.3852    -0.8104 N.2     
   9 C9             4.4460     0.6467    -1.8303 C.3     
  10 C10            4.5797     2.0217    -1.1869 C.3     
  11 N11            3.5758     2.1156    -0.0993 N.pl3   
  12 C12            4.2026     2.8666     0.8857 C.2     
  13 N13            5.8410     2.2756    -0.5045 N.pl3   
  14 N14            5.4734     2.9323     0.6850 N.2     
  15 C15            3.4887     3.5209     2.0404 C.3     
  16 C16            4.0190    -1.6088     1.1834 C.ar    
  17 C17            5.2605    -2.2418     1.2413 C.ar    
  18 C18            3.0589    -1.8785     2.1584 C.ar    
  19 C19            3.3402    -2.7729     3.1708 C.ar    
  20 C20            4.5716    -3.4016     3.2199 C.ar    
  21 C21            5.5299    -3.1342     2.2586 C.ar    
  22 C22           -1.2280    -0.7371    -0.0092 C.1     
  23 C23           -2.2365    -1.3381    -0.0184 C.1     
  24 H24           -0.9619     1.9167     0.0170 H       
  25 H25            1.2402    -1.7642     0.0010 H       
  26 H26            1.1346     3.1899     0.0094 H       
  27 H27            5.2172     0.5249    -2.5909 H       
  28 H28            3.4628     0.5558    -2.2922 H       
  29 H29            4.3939     2.7972    -1.9300 H       
  30 H30            6.7344     2.0436    -0.8027 H       
  31 H31            3.4491     2.8293     2.8819 H       
  32 H32            4.0256     4.4223     2.3358 H       
  33 H33            2.4750     3.7843     1.7385 H       
  34 H34            6.0092    -2.0341     0.4912 H       
  35 H35            2.0974    -1.3881     2.1213 H       
  36 H36            2.5976    -2.9823     3.9265 H       
  37 H37            4.7871    -4.1009     4.0142 H       
  38 H38            6.4892    -3.6284     2.3019 H       
  39 H39           -3.1384    -1.8756    -0.0267 H       
@<TRIPOS>BOND
   1    1    2 ar
   2    1    6 ar
   3    1   24 1
   4    2    3 ar
   5    2   22 1
   6    3    4 ar
   7    3   25 1
   8    4    5 ar
   9    4    7 1
  10    5    6 ar
  11    5   11 1
  12    6   26 1
  13    7    8 2
  14    7   16 1
  15    8    9 1
  16    9   10 1
  17    9   27 1
  18    9   28 1
  19   10   11 1
  20   10   13 1
  21   10   29 1
  22   11   12 1
  23   12   15 1
  24   12   14 2
  25   13   14 1
  26   13   30 1
  27   15   31 1
  28   15   32 1
  29   15   33 1
  30   16   17 ar
  31   16   18 ar
  32   17   21 ar
  33   17   34 1
  34   18   19 ar
  35   18   35 1
  36   19   20 ar
  37   19   36 1
  38   20   21 ar
  39   20   37 1
  40   21   38 1
  41   22   23 3
  42   23   39 1

#	End of record

