#	Name: ASD09740074
#	Creating user name:	WinNT
#	Creation time:	15. 06. 2019 21:22

#	Modifying user name:	WinNT
#	Modification time:	15. 06. 2019 21:22

#	Program:	/corina/corina34_cracker 3.40 0067  02.08.2006

@<TRIPOS>MOLECULE
ASD09740074
  53   55    0    0    0
SMALL
NO_CHARGES


@<TRIPOS>ATOM
   1 O1            -0.0144     1.2085     0.0087 O.3     
   2 N2             0.0021    -0.0041     0.0020 N.2     
   3 C3             1.2411     1.6827    -0.0008 C.2     
   4 N4             2.0453     0.6365    -0.0141 N.2     
   5 C5             1.2345    -0.4420    -0.0121 C.2     
   6 C6             1.6625    -1.8640    -0.0234 C.ar    
   7 C7             1.6456     3.1046     0.0026 C.ar    
   8 C8             0.7215    -2.8965    -0.0200 C.ar    
   9 C9             3.0169    -2.2055    -0.0436 C.ar    
  10 C10            3.3712    -3.5396    -0.0540 C.ar    
  11 N11            2.4511    -4.4844    -0.0451 N.ar    
  12 C12            1.1623    -4.2046    -0.0313 C.ar    
  13 C13            0.6765     4.1090     0.0173 C.ar    
  14 C14            1.0608     5.4340     0.0208 C.ar    
  15 C15            2.4033     5.7681     0.0093 C.ar    
  16 C16            3.3690     4.7774    -0.0052 C.ar    
  17 C17            2.9982     3.4485    -0.0031 C.ar    
  18 C18            2.8157     7.2176     0.0123 C.3     
  19 C19            3.6611     7.5048     1.2547 C.3     
  20 C20            3.6368     7.5168    -1.2436 C.3     
  21 C21            3.9495     9.0133    -1.3039 C.3     
  22 C22            4.7706     9.3125    -2.5598 C.3     
  23 C23            5.0834    10.8089    -2.6201 C.3     
  24 C24            5.9045    11.1081    -3.8760 C.3     
  25 C25            6.2172    12.6046    -3.9363 C.3     
  26 C26            7.0383    12.9038    -5.1922 C.3     
  27 H27           -0.3354    -2.6745    -0.0083 H       
  28 H28            3.7756    -1.4369    -0.0513 H       
  29 H29            4.4158    -3.8134    -0.0700 H       
  30 H30            0.4423    -5.0096    -0.0241 H       
  31 H31           -0.3718     3.8494     0.0255 H       
  32 H32            0.3119     6.2121     0.0322 H       
  33 H33            4.4153     5.0449    -0.0141 H       
  34 H34            3.7530     2.6761    -0.0141 H       
  35 H35            1.9267     7.8482     0.0239 H       
  36 H36            4.5500     6.8742     1.2431 H       
  37 H37            3.9593     8.5532     1.2569 H       
  38 H38            3.0761     7.2917     2.1494 H       
  39 H39            4.5684     6.9519    -1.2117 H       
  40 H40            3.0672     7.2287    -2.1272 H       
  41 H41            3.0179     9.5782    -1.3358 H       
  42 H42            4.5190     9.3013    -0.4203 H       
  43 H43            5.7023     8.7476    -2.5279 H       
  44 H44            4.2011     9.0244    -3.4434 H       
  45 H45            4.1517    11.3739    -2.6520 H       
  46 H46            5.6529    11.0970    -1.7365 H       
  47 H47            6.8361    10.5432    -3.8441 H       
  48 H48            5.3349    10.8201    -4.7596 H       
  49 H49            5.2856    13.1695    -3.9682 H       
  50 H50            6.7867    12.8927    -3.0527 H       
  51 H51            7.2611    13.9699    -5.2352 H       
  52 H52            7.9700    12.3389    -5.1603 H       
  53 H53            6.4688    12.6157    -6.0758 H       
@<TRIPOS>BOND
   1    1    2 1
   2    1    3 1
   3    2    5 2
   4    3    4 2
   5    3    7 1
   6    4    5 1
   7    5    6 1
   8    6    8 ar
   9    6    9 ar
  10    7   13 ar
  11    7   17 ar
  12    8   12 ar
  13    8   27 1
  14    9   10 ar
  15    9   28 1
  16   10   11 ar
  17   10   29 1
  18   11   12 ar
  19   12   30 1
  20   13   14 ar
  21   13   31 1
  22   14   15 ar
  23   14   32 1
  24   15   16 ar
  25   15   18 1
  26   16   17 ar
  27   16   33 1
  28   17   34 1
  29   18   19 1
  30   18   20 1
  31   18   35 1
  32   19   36 1
  33   19   37 1
  34   19   38 1
  35   20   21 1
  36   20   39 1
  37   20   40 1
  38   21   22 1
  39   21   41 1
  40   21   42 1
  41   22   23 1
  42   22   43 1
  43   22   44 1
  44   23   24 1
  45   23   45 1
  46   23   46 1
  47   24   25 1
  48   24   47 1
  49   24   48 1
  50   25   26 1
  51   25   49 1
  52   25   50 1
  53   26   51 1
  54   26   52 1
  55   26   53 1

#	End of record

