#	Name: ASD01918068
#	Creating user name:	WinNT
#	Creation time:	15. 06. 2019 20:10

#	Modifying user name:	WinNT
#	Modification time:	15. 06. 2019 20:10

#	Program:	/corina/corina34_cracker 3.40 0067  02.08.2006

@<TRIPOS>MOLECULE
ASD01918068
  47   50    0    0    0
SMALL
NO_CHARGES


@<TRIPOS>ATOM
   1 C1            -0.0229     1.4979     0.0323 C.3     
   2 C2            -0.0030    -0.0078     0.0104 C.2     
   3 C3             1.0839    -0.7502    -0.3152 C.2     
   4 C4             2.4195    -0.1741    -0.7032 C.3     
   5 C5             2.2210     1.3042    -1.0630 C.3     
   6 C6             1.4269     1.9996     0.0455 C.3     
   7 N7             0.7092    -2.0370    -0.2161 N.pl3   
   8 N8            -0.5299    -2.0648     0.1452 N.2     
   9 N9            -0.9807    -0.8643     0.2876 N.2     
  10 C10            1.5578    -3.2033    -0.4730 C.3     
  11 C11            1.4446     3.4891    -0.1831 C.2     
  12 N12            1.9233     4.3956     0.6321 N.2     
  13 C13            1.7236     5.5816     0.0141 C.2     
  14 N14            1.1410     5.3280    -1.1288 N.2     
  15 O15            0.9798     4.1329    -1.2584 O.3     
  16 C16            2.0955     6.9205     0.5355 C.ar    
  17 C17            2.7149     7.0497     1.7768 C.ar    
  18 N18            3.0451     8.2373     2.2409 N.ar    
  19 C19            2.8072     9.3418     1.5598 C.ar    
  20 C20            2.1959     9.2970     0.3204 C.ar    
  21 C21            1.8352     8.0712    -0.2129 C.ar    
  22 C22            2.8289    -3.1055     0.3729 C.3     
  23 C23            0.7970    -4.4786    -0.1046 C.3     
  24 C24            1.9336    -3.2440    -1.9556 C.3     
  25 C25            3.2075    10.6730     2.1418 C.3     
  26 H26           -0.5328     1.8714    -0.8557 H       
  27 H27           -0.5399     1.8454     0.9268 H       
  28 H28            3.1129    -0.2586     0.1335 H       
  29 H29            2.8152    -0.7119    -1.5647 H       
  30 H30            3.1931     1.7855    -1.1700 H       
  31 H31            1.6737     1.3789    -2.0027 H       
  32 H32            1.8798     1.7755     1.0112 H       
  33 H33            2.9260     6.1681     2.3638 H       
  34 H34            2.0057    10.2080    -0.2277 H       
  35 H35            1.3604     8.0066    -1.1808 H       
  36 H36            2.5611    -3.0765     1.4291 H       
  37 H37            3.4602    -3.9732     0.1818 H       
  38 H38            3.3709    -2.1969     0.1105 H       
  39 H39           -0.1086    -4.5483    -0.7073 H       
  40 H40            1.4283    -5.3464    -0.2958 H       
  41 H41            0.5292    -4.4497     0.9516 H       
  42 H42            2.3990    -2.2998    -2.2384 H       
  43 H43            2.6337    -4.0609    -2.1307 H       
  44 H44            1.0360    -3.4002    -2.5538 H       
  45 H45            4.2242    10.9142     1.8316 H       
  46 H46            2.5259    11.4452     1.7851 H       
  47 H47            3.1619    10.6224     3.2297 H       
@<TRIPOS>BOND
   1    1    2 1
   2    1    6 1
   3    1   26 1
   4    1   27 1
   5    2    9 1
   6    2    3 2
   7    3    4 1
   8    3    7 1
   9    4    5 1
  10    4   28 1
  11    4   29 1
  12    5    6 1
  13    5   30 1
  14    5   31 1
  15    6   11 1
  16    6   32 1
  17    7    8 1
  18    7   10 1
  19    8    9 2
  20   10   22 1
  21   10   23 1
  22   10   24 1
  23   11   12 2
  24   11   15 1
  25   12   13 1
  26   13   14 2
  27   13   16 1
  28   14   15 1
  29   16   17 ar
  30   16   21 ar
  31   17   18 ar
  32   17   33 1
  33   18   19 ar
  34   19   20 ar
  35   19   25 1
  36   20   21 ar
  37   20   34 1
  38   21   35 1
  39   22   36 1
  40   22   37 1
  41   22   38 1
  42   23   39 1
  43   23   40 1
  44   23   41 1
  45   24   42 1
  46   24   43 1
  47   24   44 1
  48   25   45 1
  49   25   46 1
  50   25   47 1

#	End of record

