#	Name: ASD01810532
#	Creating user name:	WinNT
#	Creation time:	15. 06. 2019 19:24

#	Modifying user name:	WinNT
#	Modification time:	15. 06. 2019 19:24

#	Program:	/corina/corina34_cracker 3.40 0067  02.08.2006

@<TRIPOS>MOLECULE
ASD01810532
  97  101    0    0    0
SMALL
NO_CHARGES


@<TRIPOS>ATOM
   1 S1             1.6258     1.9622    -0.6783 S.3     
   2 C2             2.3821     0.6865     0.3981 C.3     
   3 N3             1.3386    -0.3330     0.5112 N.am    
   4 C4             0.1005     0.0060     0.1632 C.2     
   5 C5            -0.0971     1.4306    -0.3174 C.3     
   6 C6             3.6321     0.1253    -0.2678 C.3     
   7 C7             4.2924    -0.8916     0.6683 C.3     
   8 N8             4.6170    -0.2415     1.9446 N.3     
   9 C9             3.4057     0.2340     2.6253 C.3     
  10 C10            2.7143     1.2897     1.7570 C.3     
  11 C11           -0.9541     1.4640    -1.5844 C.3     
  12 C12           -1.2373     2.9172    -1.9703 C.3     
  13 O13           -0.8199    -0.7813     0.2263 O.2     
  14 C14            1.6473    -1.6819     0.9923 C.3     
  15 N15            7.1386   -16.0456    -4.1434 N.3     
  16 C16            7.7934   -17.2761    -3.6815 C.3     
  17 C17            8.3118   -18.0631    -4.8874 C.3     
  18 C18            7.1391   -18.4027    -5.8115 C.3     
  19 C19            6.4447   -17.1068    -6.2393 C.3     
  20 C20            5.9805   -16.3476    -4.9943 C.3     
  21 N21            7.6372   -19.1055    -6.9964 N.am    
  22 C22            7.2731   -20.3893    -7.3959 C.ar    
  23 C23            8.5205   -18.6184    -7.8882 C.2     
  24 N24            8.7486   -19.5351    -8.8475 N.am    
  25 C25            7.9796   -20.6626    -8.5688 C.ar    
  26 C26            7.8189   -21.8853    -9.2027 C.ar    
  27 C27            6.9608   -22.8277    -8.6709 C.ar    
  28 C28            6.2601   -22.5567    -7.5081 C.ar    
  29 C29            6.4117   -21.3407    -6.8711 C.ar    
  30 O30            9.0347   -17.5167    -7.8352 O.2     
  31 C31            2.0511    -2.5650    -0.1900 C.3     
  32 C32            2.4979    -3.9345     0.3256 C.3     
  33 C33            2.9017    -4.8176    -0.8568 C.3     
  34 C34            3.3485    -6.1871    -0.3412 C.3     
  35 C35            3.7523    -7.0703    -1.5235 C.3     
  36 C36            4.1991    -8.4397    -1.0079 C.3     
  37 C37            4.6029    -9.3229    -2.1903 C.3     
  38 C38            5.0497   -10.6924    -1.6747 C.3     
  39 C39            5.4535   -11.5755    -2.8570 C.3     
  40 C40            5.9003   -12.9450    -2.3414 C.3     
  41 C41            6.3041   -13.8282    -3.5238 C.3     
  42 C42            6.7509   -15.1976    -3.0082 C.3     
  43 H43           -0.5372     2.0469     0.4665 H       
  44 H44            3.3576    -0.3649    -1.2019 H       
  45 H45            4.3300     0.9368    -0.4739 H       
  46 H46            3.6071    -1.7202     0.8464 H       
  47 H47            5.2066    -1.2680     0.2093 H       
  48 H48            5.1477    -0.8592     2.5403 H       
  49 H49            2.7276    -0.6038     2.7879 H       
  50 H50            3.6770     0.6737     3.5850 H       
  51 H51            3.3792     2.1430     1.6234 H       
  52 H52            1.7957     1.6166     2.2442 H       
  53 H53           -0.4213     0.9696    -2.3966 H       
  54 H54           -1.8958     0.9470    -1.3998 H       
  55 H55           -1.8478     2.9411    -2.8729 H       
  56 H56           -1.7701     3.4117    -1.1580 H       
  57 H57           -0.2956     3.4342    -2.1548 H       
  58 H58            2.4689    -1.6336     1.7070 H       
  59 H59            0.7677    -2.1046     1.4778 H       
  60 H60            8.6280   -17.0204    -3.0287 H       
  61 H61            7.0758   -17.8850    -3.1317 H       
  62 H62            9.0398   -17.4600    -5.4299 H       
  63 H63            8.7840   -18.9840    -4.5452 H       
  64 H64            6.4298   -19.0382    -5.2813 H       
  65 H65            7.1434   -16.4887    -6.8031 H       
  66 H66            5.5830   -17.3445    -6.8630 H       
  67 H67            5.2714   -16.9609    -4.4383 H       
  68 H68            5.4983   -15.4174    -5.2949 H       
  69 H69            9.3448   -19.4278    -9.6051 H       
  70 H70            8.3634   -22.1000   -10.1104 H       
  71 H71            6.8356   -23.7801    -9.1645 H       
  72 H72            5.5906   -23.2985    -7.0985 H       
  73 H73            5.8634   -21.1328    -5.9641 H       
  74 H74            1.1992    -2.6888    -0.8587 H       
  75 H75            2.8723    -2.0948    -0.7310 H       
  76 H76            3.3498    -3.8107     0.9942 H       
  77 H77            1.6767    -4.4047     0.8665 H       
  78 H78            2.0498    -4.9414    -1.5254 H       
  79 H79            3.7229    -4.3474    -1.3977 H       
  80 H80            4.2004    -6.0634     0.3275 H       
  81 H81            2.5273    -6.6573     0.1998 H       
  82 H82            2.9004    -7.1940    -2.1922 H       
  83 H83            4.5735    -6.6001    -2.0645 H       
  84 H84            5.0510    -8.3160    -0.3393 H       
  85 H85            3.3779    -8.9099    -0.4670 H       
  86 H86            3.7510    -9.4467    -2.8589 H       
  87 H87            5.4241    -8.8527    -2.7312 H       
  88 H88            5.9016   -10.5686    -1.0060 H       
  89 H89            4.2285   -11.1626    -1.1337 H       
  90 H90            4.6016   -11.6993    -3.5257 H       
  91 H91            6.2747   -11.1053    -3.3980 H       
  92 H92            6.7522   -12.8212    -1.6728 H       
  93 H93            5.0791   -13.4152    -1.8005 H       
  94 H94            5.4522   -13.9519    -4.1924 H       
  95 H95            7.1253   -13.3579    -4.0647 H       
  96 H96            5.9297   -15.6678    -2.4672 H       
  97 H97            7.6028   -15.0739    -2.3395 H       
@<TRIPOS>BOND
   1    1    2 1
   2    1    5 1
   3    2    3 1
   4    2    6 1
   5    2   10 1
   6    3    4 am
   7    3   14 1
   8    4    5 1
   9    4   13 2
  10    5   11 1
  11    5   43 1
  12    6    7 1
  13    6   44 1
  14    6   45 1
  15    7    8 1
  16    7   46 1
  17    7   47 1
  18    8    9 1
  19    8   48 1
  20    9   10 1
  21    9   49 1
  22    9   50 1
  23   10   51 1
  24   10   52 1
  25   11   12 1
  26   11   53 1
  27   11   54 1
  28   12   55 1
  29   12   56 1
  30   12   57 1
  31   14   31 1
  32   14   58 1
  33   14   59 1
  34   15   42 1
  35   15   16 1
  36   15   20 1
  37   16   17 1
  38   16   60 1
  39   16   61 1
  40   17   18 1
  41   17   62 1
  42   17   63 1
  43   18   19 1
  44   18   21 1
  45   18   64 1
  46   19   20 1
  47   19   65 1
  48   19   66 1
  49   20   67 1
  50   20   68 1
  51   21   22 1
  52   21   23 am
  53   22   25 ar
  54   22   29 ar
  55   23   24 am
  56   23   30 2
  57   24   25 1
  58   24   69 1
  59   25   26 ar
  60   26   27 ar
  61   26   70 1
  62   27   28 ar
  63   27   71 1
  64   28   29 ar
  65   28   72 1
  66   29   73 1
  67   31   32 1
  68   31   74 1
  69   31   75 1
  70   32   33 1
  71   32   76 1
  72   32   77 1
  73   33   34 1
  74   33   78 1
  75   33   79 1
  76   34   35 1
  77   34   80 1
  78   34   81 1
  79   35   36 1
  80   35   82 1
  81   35   83 1
  82   36   37 1
  83   36   84 1
  84   36   85 1
  85   37   38 1
  86   37   86 1
  87   37   87 1
  88   38   39 1
  89   38   88 1
  90   38   89 1
  91   39   40 1
  92   39   90 1
  93   39   91 1
  94   40   41 1
  95   40   92 1
  96   40   93 1
  97   41   42 1
  98   41   94 1
  99   41   95 1
 100   42   96 1
 101   42   97 1

#	End of record

