#	Name: ASD03090837
#	Creating user name:	WinNT
#	Creation time:	15. 06. 2019 20:29

#	Modifying user name:	WinNT
#	Modification time:	15. 06. 2019 20:29

#	Program:	/corina/corina34_cracker 3.40 0067  02.08.2006

@<TRIPOS>MOLECULE
ASD03090837
  41   44    0    0    0
SMALL
NO_CHARGES


@<TRIPOS>ATOM
   1 C1             0.0695     1.5357    -0.0317 C.3     
   2 C2             0.1102    -0.0015    -0.0496 C.3     
   3 C3             1.5101     0.1066     0.5778 C.3     
   4 C4             1.6064     1.4985    -0.0689 C.3     
   5 C5            -0.5499     2.1376    -1.2666 C.2     
   6 O6            -0.9588     1.4152    -2.1559 O.2     
   7 N7            -0.6492     3.4555    -1.3840 N.2     
   8 S8            -1.8324     3.1448    -3.8381 S.3     
   9 C9            -1.1978     3.9885    -2.4776 C.2     
  10 N10           -1.3707     5.3055    -2.7465 N.pl3   
  11 C11           -1.9576     5.6214    -3.9323 C.2     
  12 C12           -2.3065     4.6090    -4.7165 C.2     
  13 O13            0.2388     9.2395     0.8020 O.3     
  14 C14            0.3607     8.8716     2.1802 C.3     
  15 C15            1.1229     7.5417     2.2567 C.3     
  16 O16            0.3795     6.5569     1.5304 O.3     
  17 C17           -0.0839     6.9218     0.3037 C.ar    
  18 C18           -0.1563     8.2619    -0.0599 C.ar    
  19 C19           -0.4865     5.9413    -0.5893 C.ar    
  20 C20           -0.9637     6.2975    -1.8431 C.ar    
  21 C21           -1.0374     7.6362    -2.2023 C.ar    
  22 C22           -0.6348     8.6140    -1.3131 C.ar    
  23 F23            2.3913     7.6912     1.6858 F       
  24 F24            1.2496     7.1466     3.5928 F       
  25 F25            1.0677     9.8610     2.8719 F       
  26 F26           -0.9113     8.7194     2.7423 F       
  27 C27           -2.9667     4.6881    -6.0688 C.3     
  28 H28           -0.3349     1.9510     0.8914 H       
  29 H29           -0.6272    -0.4654     0.6054 H       
  30 H30            0.1132    -0.4265    -1.0533 H       
  31 H31            1.4994     0.1313     1.6675 H       
  32 H32            2.2250    -0.6117     0.1767 H       
  33 H33            2.0185     1.4835    -1.0779 H       
  34 H34            2.0769     2.2454     0.5705 H       
  35 H35           -2.1316     6.6472    -4.2218 H       
  36 H36           -0.4289     4.8997    -0.3094 H       
  37 H37           -1.4092     7.9137    -3.1775 H       
  38 H38           -0.6932     9.6551    -1.5944 H       
  39 H39           -3.1232     3.6813    -6.4562 H       
  40 H40           -3.9272     5.1948    -5.9752 H       
  41 H41           -2.3271     5.2453    -6.7534 H       
@<TRIPOS>BOND
   1    1    2 1
   2    1    4 1
   3    1    5 1
   4    1   28 1
   5    2    3 1
   6    2   29 1
   7    2   30 1
   8    3    4 1
   9    3   31 1
  10    3   32 1
  11    4   33 1
  12    4   34 1
  13    5    6 2
  14    5    7 1
  15    7    9 2
  16    8    9 1
  17    8   12 1
  18    9   10 1
  19   10   11 1
  20   10   20 1
  21   11   12 2
  22   11   35 1
  23   12   27 1
  24   13   14 1
  25   13   18 1
  26   14   15 1
  27   14   25 1
  28   14   26 1
  29   15   16 1
  30   15   23 1
  31   15   24 1
  32   16   17 1
  33   17   18 ar
  34   17   19 ar
  35   18   22 ar
  36   19   20 ar
  37   19   36 1
  38   20   21 ar
  39   21   22 ar
  40   21   37 1
  41   22   38 1
  42   27   39 1
  43   27   40 1
  44   27   41 1

#	End of record

