#	Name: ASD00990085
#	Creating user name:	WinNT
#	Creation time:	15. 06. 2019 18:54

#	Modifying user name:	WinNT
#	Modification time:	15. 06. 2019 18:54

#	Program:	/corina/corina34_cracker 3.40 0067  02.08.2006

@<TRIPOS>MOLECULE
ASD00990085
  48   51    0    0    0
SMALL
NO_CHARGES


@<TRIPOS>ATOM
   1 C1            -0.4130     0.7417    -1.2242 C.ar    
   2 C2            -0.2673    -0.6295    -1.3048 C.ar    
   3 C3             0.9846    -1.2003    -1.1612 C.ar    
   4 C4             2.1203    -0.4223    -0.9342 C.ar    
   5 C5             1.9490     0.9684    -0.8560 C.ar    
   6 C6             0.7022     1.5326    -0.9994 C.ar    
   7 S7             1.5411    -2.8790    -1.2036 S.3     
   8 C8             3.2424    -2.4748    -0.9204 C.2     
   9 N9             3.2945    -1.1435    -0.8134 N.am    
  10 Cl10           0.5241     3.2564    -0.8967 Cl      
  11 C11            4.5688    -0.4622    -0.5725 C.3     
  12 C12            5.2151    -0.1246    -1.8914 C.2     
  13 N13            6.4040     0.5096    -1.9165 N.am    
  14 C14            7.0322     0.8378    -3.1987 C.3     
  15 O15            4.6653    -0.4237    -2.9303 O.2     
  16 C16            7.0681     0.8709    -0.6617 C.3     
  17 C17            6.5336     2.1781    -3.6739 C.2     
  18 N18            7.1774     3.3613    -3.4838 N.pl3   
  19 C19            6.4041     4.3473    -4.0630 C.ar    
  20 C20            5.2817     3.6945    -4.6000 C.ar    
  21 N21            5.4273     2.3716    -4.3308 N.2     
  22 C22            6.5305     5.7237    -4.1932 C.ar    
  23 C23            5.5525     6.4402    -4.8492 C.ar    
  24 C24            4.4439     5.7951    -5.3790 C.ar    
  25 C25            4.3028     4.4415    -5.2606 C.ar    
  26 O26            4.1755    -3.2522    -0.8399 O.2     
  27 C27            8.4545     3.5535    -2.7920 C.3     
  28 C28            9.5919     3.5663    -3.8153 C.3     
  29 O29           10.8375     3.7538    -3.1406 O.3     
  30 H30           -1.3870     1.1937    -1.3399 H       
  31 H31           -1.1300    -1.2554    -1.4794 H       
  32 H32            2.8053     1.6029    -0.6813 H       
  33 H33            4.3902     0.4544    -0.0103 H       
  34 H34            5.2282    -1.1160    -0.0016 H       
  35 H35            8.1144     0.8761    -3.0737 H       
  36 H36            6.7782     0.0741    -3.9337 H       
  37 H37            7.6475     0.0216    -0.2996 H       
  38 H38            7.7328     1.7176    -0.8330 H       
  39 H39            6.3181     1.1423     0.0813 H       
  40 H40            7.3909     6.2308    -3.7821 H       
  41 H41            5.6494     7.5110    -4.9513 H       
  42 H42            3.6851     6.3689    -5.8902 H       
  43 H43            3.4361     3.9496    -5.6769 H       
  44 H44            8.4378     4.5022    -2.2555 H       
  45 H45            8.6109     2.7389    -2.0850 H       
  46 H46            9.6085     2.6176    -4.3519 H       
  47 H47            9.4354     4.3810    -4.5224 H       
  48 H48           11.6047     3.7722    -3.7290 H       
@<TRIPOS>BOND
   1    1    2 ar
   2    1    6 ar
   3    1   30 1
   4    2    3 ar
   5    2   31 1
   6    3    4 ar
   7    3    7 1
   8    4    5 ar
   9    4    9 1
  10    5    6 ar
  11    5   32 1
  12    6   10 1
  13    7    8 1
  14    8    9 am
  15    8   26 2
  16    9   11 1
  17   11   12 1
  18   11   33 1
  19   11   34 1
  20   12   13 am
  21   12   15 2
  22   13   14 1
  23   13   16 1
  24   14   17 1
  25   14   35 1
  26   14   36 1
  27   16   37 1
  28   16   38 1
  29   16   39 1
  30   17   18 1
  31   17   21 2
  32   18   19 1
  33   18   27 1
  34   19   20 ar
  35   19   22 ar
  36   20   21 1
  37   20   25 ar
  38   22   23 ar
  39   22   40 1
  40   23   24 ar
  41   23   41 1
  42   24   25 ar
  43   24   42 1
  44   25   43 1
  45   27   28 1
  46   27   44 1
  47   27   45 1
  48   28   29 1
  49   28   46 1
  50   28   47 1
  51   29   48 1

#	End of record

