#	Name: ASD00071124
#	Creating user name:	WinNT
#	Creation time:	15. 06. 2019 18:30

#	Modifying user name:	WinNT
#	Modification time:	15. 06. 2019 18:30

#	Program:	/corina/corina34_cracker 3.40 0067  02.08.2006

@<TRIPOS>MOLECULE
ASD00071124
  37   39    0    0    0
SMALL
NO_CHARGES


@<TRIPOS>ATOM
   1 N1            -0.0157     1.3063     0.0092 N.2     
   2 C2             0.0021    -0.0041     0.0020 C.2     
   3 N3             1.1986    -0.6823     0.0320 N.pl3   
   4 C4             2.3734    -0.0687    -0.6056 C.3     
   5 C5             2.3604     1.4064    -0.2840 C.ar    
   6 C6             3.5312     2.1315    -0.2743 C.ar    
   7 C7             3.5030     3.4869     0.0109 C.ar    
   8 C8             2.3006     4.1164     0.2857 C.ar    
   9 C9             1.1229     3.3981     0.2830 C.ar    
  10 C10            1.1446     2.0306     0.0020 C.ar    
  11 N11           -1.1785    -0.7030    -0.0352 N.pl3   
  12 C12            1.3007    -1.9891     0.6863 C.3     
  13 C13            1.0041    -3.0763    -0.3142 C.ar    
  14 C14            1.9850    -3.4853    -1.2063 C.ar    
  15 C15            1.7089    -4.4863    -2.1260 C.ar    
  16 C16            0.4585    -5.0735    -2.1518 C.ar    
  17 C17           -0.5172    -4.6638    -1.2622 C.ar    
  18 C18           -0.2426    -3.6704    -0.3402 C.ar    
  19 O19            3.2140    -2.9059    -1.1793 O.3     
  20 C20            4.1743    -3.3771    -2.1268 C.3     
  21 Cl21           4.9800     4.3991     0.0244 Cl      
  22 H22            3.2841    -0.5230    -0.2151 H       
  23 H23            2.3233    -0.2110    -1.6851 H       
  24 H24            4.4707     1.6438    -0.4885 H       
  25 H25            2.2848     5.1742     0.5033 H       
  26 H26            0.1869     3.8919     0.4983 H       
  27 H27           -2.0234    -0.2270    -0.0561 H       
  28 H28           -1.1679    -1.6729    -0.0406 H       
  29 H29            2.3091    -2.1213     1.0784 H       
  30 H30            0.5827    -2.0427     1.5047 H       
  31 H31            2.4706    -4.8062    -2.8217 H       
  32 H32            0.2430    -5.8528    -2.8677 H       
  33 H33           -1.4943    -5.1235    -1.2843 H       
  34 H34           -1.0050    -3.3555     0.3569 H       
  35 H35            4.3487    -4.4414    -1.9688 H       
  36 H36            3.7971    -3.2168    -3.1368 H       
  37 H37            5.1096    -2.8325    -1.9976 H       
@<TRIPOS>BOND
   1    1    2 2
   2    1   10 1
   3    2    3 1
   4    2   11 1
   5    3    4 1
   6    3   12 1
   7    4    5 1
   8    4   22 1
   9    4   23 1
  10    5    6 ar
  11    5   10 ar
  12    6    7 ar
  13    6   24 1
  14    7    8 ar
  15    7   21 1
  16    8    9 ar
  17    8   25 1
  18    9   10 ar
  19    9   26 1
  20   11   27 1
  21   11   28 1
  22   12   13 1
  23   12   29 1
  24   12   30 1
  25   13   14 ar
  26   13   18 ar
  27   14   15 ar
  28   14   19 1
  29   15   16 ar
  30   15   31 1
  31   16   17 ar
  32   16   32 1
  33   17   18 ar
  34   17   33 1
  35   18   34 1
  36   19   20 1
  37   20   35 1
  38   20   36 1
  39   20   37 1

#	End of record

