#	Name: ASD00844607
#	Creating user name:	WinNT
#	Creation time:	15. 06. 2019 18:50

#	Modifying user name:	WinNT
#	Modification time:	15. 06. 2019 18:50

#	Program:	/corina/corina34_cracker 3.40 0067  02.08.2006

@<TRIPOS>MOLECULE
ASD00844607
  91   96    0    0    0
SMALL
NO_CHARGES


@<TRIPOS>ATOM
   1 C1             0.7226     1.1984    -0.4214 C.ar    
   2 C2             0.9741    -0.1423    -0.6728 C.ar    
   3 C3             0.8844    -1.0677     0.3572 C.ar    
   4 C4             0.5450    -0.6519     1.6299 C.ar    
   5 C5             0.2942     0.6852     1.8779 C.ar    
   6 C6             0.3834     1.6092     0.8535 C.ar    
   7 C7             1.1565    -2.5251     0.0874 C.3     
   8 C8             0.8606    -3.3565     1.3175 C.2     
   9 C9             0.3264    -3.0129    -1.1016 C.3     
  10 C10           -1.1305    -2.7195    -0.8512 C.2     
  11 N11           -2.0645    -3.1550    -1.7198 N.am    
  12 O12           -1.4623    -2.0916     0.1319 O.2     
  13 C13           -3.4752    -2.7801    -1.5521 C.3     
  14 C14           -4.3256    -4.0543    -1.5383 C.3     
  15 C15           -4.0376    -4.8689    -2.8014 C.3     
  16 C16           -2.5617    -5.2734    -2.8241 C.3     
  17 C17           -1.6905    -4.0085    -2.8557 C.3     
  18 N18           -4.8758    -6.0752    -2.8076 N.3     
  19 C19           -4.7136    -6.8228    -4.0623 C.3     
  20 C20           -5.5397    -8.1096    -3.9969 C.3     
  21 N21           -6.9513    -7.7712    -3.7675 N.3     
  22 C22           -7.1135    -7.0236    -2.5128 C.3     
  23 C23           -6.2874    -5.7368    -2.5783 C.3     
  24 C24           -7.7895    -8.9775    -3.7737 C.3     
  25 O25           -0.2129    -3.4669     1.8711 O.2     
  26 N26            2.0107    -3.9486     1.6810 N.am    
  27 C27            2.6298    -2.7511    -0.1635 C.ar    
  28 C28            3.0680    -3.6145     0.8332 C.ar    
  29 C29            3.4982    -2.2817    -1.1230 C.ar    
  30 C30            4.8273    -2.6701    -1.1017 C.ar    
  31 C31            5.2770    -3.5308    -0.1130 C.ar    
  32 C32            4.4057    -4.0023     0.8503 C.ar    
  33 Cl33           5.9262    -2.0813    -2.3097 Cl      
  34 F34            6.5733    -3.9106    -0.0908 F       
  35 C35            1.8347    -6.5949     2.4162 C.ar    
  36 C36            0.5744    -6.9298     1.9434 C.ar    
  37 C37            2.8388    -7.5438     2.4353 C.ar    
  38 C38            2.5883    -8.8261     1.9833 C.ar    
  39 C39            1.3327    -9.1625     1.5115 C.ar    
  40 C40            0.3255    -8.2176     1.4907 C.ar    
  41 H41            1.1396   -10.1649     1.1589 H       
  42 O42           -0.4150    -5.9984     1.9240 O.3     
  43 C43           -1.6875    -6.4139     1.4238 C.3     
  44 C44           -9.1968    -8.6231    -3.2892 C.3     
  45 O45            1.3075    -0.5489    -1.9260 O.3     
  46 C46            1.3254     0.4491    -2.9486 C.3     
  47 C47            1.7962    -0.1762    -4.2632 C.3     
  48 F48            3.0465    -0.7744    -4.0737 F       
  49 F49            0.8740    -1.1438    -4.6760 F       
  50 S50            2.1569    -4.9587     2.9851 S.o2    
  51 O51            3.5259    -4.9282     3.3648 O.2     
  52 O52            1.0970    -4.6260     3.8712 O.2     
  53 H53            0.7961     1.9213    -1.2205 H       
  54 H54            0.4750    -1.3718     2.4319 H       
  55 H55            0.0283     1.0082     2.8735 H       
  56 H56            0.1871     2.6529     1.0497 H       
  57 H57            0.6503    -2.4984    -2.0064 H       
  58 H58            0.4647    -4.0870    -1.2251 H       
  59 H59           -3.6020    -2.2460    -0.6105 H       
  60 H60           -3.7850    -2.1431    -2.3806 H       
  61 H61           -4.0776    -4.6477    -0.6583 H       
  62 H62           -5.3819    -3.7864    -1.5111 H       
  63 H63           -4.2624    -4.2661    -3.6814 H       
  64 H64           -2.3303    -5.8553    -1.9320 H       
  65 H65           -2.3625    -5.8732    -3.7121 H       
  66 H66           -1.8560    -3.4741    -3.7912 H       
  67 H67           -0.6398    -4.2863    -2.7721 H       
  68 H68           -5.0577    -6.2118    -4.8968 H       
  69 H69           -3.6620    -7.0726    -4.2035 H       
  70 H70           -5.4439    -8.6515    -4.9377 H       
  71 H71           -5.1777    -8.7329    -3.1792 H       
  72 H72           -8.1651    -6.7738    -2.3717 H       
  73 H73           -6.7694    -7.6346    -1.6783 H       
  74 H74           -6.3832    -5.1949    -1.6375 H       
  75 H75           -6.6494    -5.1135    -3.3959 H       
  76 H76           -7.8437    -9.3771    -4.7864 H       
  77 H77           -7.3546    -9.7255    -3.1108 H       
  78 H78            3.1432    -1.6114    -1.8918 H       
  79 H79            4.7627    -4.6725     1.6183 H       
  80 H80            3.8202    -7.2835     2.8033 H       
  81 H81            3.3747    -9.5662     1.9984 H       
  82 H82           -0.6552    -8.4810     1.1228 H       
  83 H83           -2.0681    -7.2328     2.0343 H       
  84 H84           -2.3844    -5.5768     1.4634 H       
  85 H85           -1.5805    -6.7491     0.3922 H       
  86 H86           -9.6317    -7.8751    -3.9522 H       
  87 H87           -9.8188    -9.5183    -3.2938 H       
  88 H88           -9.1426    -8.2236    -2.2766 H       
  89 H89            0.3220     0.8548    -3.0780 H       
  90 H90            2.0070     1.2501    -2.6626 H       
  91 H91            1.8759     0.5985    -5.0260 H       
@<TRIPOS>BOND
   1    1    2 ar
   2    1    6 ar
   3    1   53 1
   4    2    3 ar
   5    2   45 1
   6    3    4 ar
   7    3    7 1
   8    4    5 ar
   9    4   54 1
  10    5    6 ar
  11    5   55 1
  12    6   56 1
  13    7    8 1
  14    7    9 1
  15    7   27 1
  16    8   25 2
  17    8   26 am
  18    9   10 1
  19    9   57 1
  20    9   58 1
  21   10   11 am
  22   10   12 2
  23   11   13 1
  24   11   17 1
  25   13   14 1
  26   13   59 1
  27   13   60 1
  28   14   15 1
  29   14   61 1
  30   14   62 1
  31   15   16 1
  32   15   18 1
  33   15   63 1
  34   16   17 1
  35   16   64 1
  36   16   65 1
  37   17   66 1
  38   17   67 1
  39   18   19 1
  40   18   23 1
  41   19   20 1
  42   19   68 1
  43   19   69 1
  44   20   21 1
  45   20   70 1
  46   20   71 1
  47   21   22 1
  48   21   24 1
  49   22   23 1
  50   22   72 1
  51   22   73 1
  52   23   74 1
  53   23   75 1
  54   24   44 1
  55   24   76 1
  56   24   77 1
  57   26   50 am
  58   26   28 1
  59   27   28 ar
  60   27   29 ar
  61   28   32 ar
  62   29   30 ar
  63   29   78 1
  64   30   31 ar
  65   30   33 1
  66   31   32 ar
  67   31   34 1
  68   32   79 1
  69   35   36 ar
  70   35   37 ar
  71   35   50 1
  72   36   42 1
  73   36   40 ar
  74   37   38 ar
  75   37   80 1
  76   38   39 ar
  77   38   81 1
  78   39   40 ar
  79   39   41 1
  80   40   82 1
  81   42   43 1
  82   43   83 1
  83   43   84 1
  84   43   85 1
  85   44   86 1
  86   44   87 1
  87   44   88 1
  88   45   46 1
  89   46   47 1
  90   46   89 1
  91   46   90 1
  92   47   48 1
  93   47   49 1
  94   47   91 1
  95   50   51 2
  96   50   52 2

#	End of record

