#	Name: ASD07930399
#	Creating user name:	WinNT
#	Creation time:	15. 06. 2019 21:12

#	Modifying user name:	WinNT
#	Modification time:	15. 06. 2019 21:12

#	Program:	/corina/corina34_cracker 3.40 0067  02.08.2006

@<TRIPOS>MOLECULE
ASD07930399
  48   50    0    0    0
SMALL
NO_CHARGES


@<TRIPOS>ATOM
   1 N1             0.0006     1.2712     0.0037 N.2     
   2 N2            -1.1611    -0.7566     0.0076 N.pl3   
   3 C3            -1.3888    -1.7915    -1.0064 C.3     
   4 C4            -0.2711    -2.8399    -0.9192 C.3     
   5 S5             1.3268    -1.9884    -1.1091 S.o2    
   6 N6             1.2083    -0.7374    -0.0148 N.am    
   7 C7             0.0133    -0.0322    -0.0009 C.2     
   8 C8             2.3111    -0.3991     0.8883 C.3     
   9 C9            -1.3839    -1.1539    -2.3972 C.3     
  10 C10           -2.7200    -2.4534    -0.7598 C.ar    
  11 C11           -3.4610    -2.1183     0.3562 C.ar    
  12 C12           -4.6880    -2.7283     0.5827 C.ar    
  13 C13           -5.1669    -3.6741    -0.3139 C.ar    
  14 C14           -4.4225    -4.0064    -1.4290 C.ar    
  15 C15           -3.2020    -3.3932    -1.6557 C.ar    
  16 N16           -5.4405    -2.3904     1.7135 N.am    
  17 C17           -6.7863    -2.3665     1.6449 C.2     
  18 O18           -7.3441    -2.5428     0.5785 O.2     
  19 C19           -7.5821    -2.1268     2.8621 C.2     
  20 O20            2.3891    -2.7940    -0.6176 O.2     
  21 O21            1.4101    -1.3490    -2.3754 O.2     
  22 C22           -8.9398    -2.0757     2.9436 C.2     
  23 F23           -2.4754    -3.7197    -2.7469 F       
  24 O24           -9.2460    -1.8369     4.2288 O.3     
  25 C25           -8.1024    -1.7433     4.9219 C.2     
  26 N26           -7.0980    -1.9207     4.1169 N.2     
  27 C27           -7.9984    -1.4806     6.4022 C.3     
  28 C28           -9.9139    -2.2528     1.8074 C.3     
  29 H29            0.8358     1.7644    -0.0027 H       
  30 H30           -1.8367    -0.5788     0.6806 H       
  31 H31           -0.3092    -3.3379     0.0496 H       
  32 H32           -0.3931    -3.5741    -1.7155 H       
  33 H33            2.9602     0.3345     0.4103 H       
  34 H34            1.9095     0.0181     1.8118 H       
  35 H35            2.8840    -1.2983     1.1149 H       
  36 H36           -0.4199    -0.6773    -2.5751 H       
  37 H37           -1.5532    -1.9235    -3.1503 H       
  38 H38           -2.1753    -0.4067    -2.4571 H       
  39 H39           -3.0865    -1.3826     1.0525 H       
  40 H40           -6.1206    -4.1498    -0.1394 H       
  41 H41           -4.7946    -4.7420    -2.1267 H       
  42 H42           -4.9934    -2.1734     2.5465 H       
  43 H43           -8.0005    -2.4284     6.9404 H       
  44 H44           -7.0722    -0.9456     6.6120 H       
  45 H45           -8.8473    -0.8777     6.7248 H       
  46 H46          -10.1759    -3.3068     1.7145 H       
  47 H47          -10.8138    -1.6709     2.0062 H       
  48 H48           -9.4564    -1.9090     0.8797 H       
@<TRIPOS>BOND
   1    1    7 2
   2    1   29 1
   3    2    3 1
   4    2    7 1
   5    2   30 1
   6    3    4 1
   7    3    9 1
   8    3   10 1
   9    4    5 1
  10    4   31 1
  11    4   32 1
  12    5    6 am
  13    5   20 2
  14    5   21 2
  15    6    7 1
  16    6    8 1
  17    8   33 1
  18    8   34 1
  19    8   35 1
  20    9   36 1
  21    9   37 1
  22    9   38 1
  23   10   11 ar
  24   10   15 ar
  25   11   12 ar
  26   11   39 1
  27   12   13 ar
  28   12   16 1
  29   13   14 ar
  30   13   40 1
  31   14   15 ar
  32   14   41 1
  33   15   23 1
  34   16   17 am
  35   16   42 1
  36   17   18 2
  37   17   19 1
  38   19   22 2
  39   19   26 1
  40   22   24 1
  41   22   28 1
  42   24   25 1
  43   25   26 2
  44   25   27 1
  45   27   43 1
  46   27   44 1
  47   27   45 1
  48   28   46 1
  49   28   47 1
  50   28   48 1

#	End of record

