#	Name: ASD00100113
#	Creating user name:	WinNT
#	Creation time:	15. 06. 2019 18:30

#	Modifying user name:	WinNT
#	Modification time:	15. 06. 2019 18:30

#	Program:	/corina/corina34_cracker 3.40 0067  02.08.2006

@<TRIPOS>MOLECULE
ASD00100113
  35   37    0    0    0
SMALL
NO_CHARGES


@<TRIPOS>ATOM
   1 C1             2.2624     0.7586    -0.1764 C.2     
   2 N2             1.6510    -0.3983    -0.1039 N.2     
   3 C3             0.3246    -0.1887     0.0981 C.2     
   4 C4             0.1186     1.1530     0.1510 C.2     
   5 N5             1.3439     1.7509    -0.0226 N.pl3   
   6 N6             3.6207     0.9412    -0.3714 N.pl3   
   7 C7             1.6118     3.1911    -0.0386 C.3     
   8 C8             1.5979     3.6889    -1.4609 C.ar    
   9 C9             0.3970     4.0346    -2.0639 C.ar    
  10 C10            0.3876     4.4924    -3.3732 C.ar    
  11 C11            1.5733     4.6031    -4.0737 C.ar    
  12 C12            2.7685     4.2576    -3.4709 C.ar    
  13 C13            2.7812     3.8067    -2.1636 C.ar    
  14 O14           -0.7680     3.9245    -1.3729 O.3     
  15 C15           -1.9658     4.2982    -2.0569 C.3     
  16 O16           -2.0259    -1.0231     0.4345 O.3     
  17 C17           -0.7109    -1.2344     0.2352 C.2     
  18 C18           -0.5012    -2.5766     0.1819 C.2     
  19 C19           -1.7580    -3.1915     0.3589 C.2     
  20 C20           -2.6620    -2.2048     0.5098 C.2     
  21 H21           -0.8266     1.6537     0.3007 H       
  22 H22            4.2118     0.1734    -0.4161 H       
  23 H23            3.9813     1.8369    -0.4635 H       
  24 H24            0.8441     3.7099     0.5355 H       
  25 H25            2.5890     3.3838     0.4043 H       
  26 H26           -0.5459     4.7618    -3.8448 H       
  27 H27            1.5665     4.9595    -5.0932 H       
  28 H28            3.6942     4.3441    -4.0203 H       
  29 H29            3.7167     3.5420    -1.6933 H       
  30 H30           -2.8202     4.1628    -1.3937 H       
  31 H31           -1.9013     5.3439    -2.3575 H       
  32 H32           -2.0894     3.6729    -2.9411 H       
  33 H33            0.4449    -3.0756     0.0327 H       
  34 H34           -1.9577    -4.2528     0.3707 H       
  35 H35           -3.7219    -2.3405     0.6662 H       
@<TRIPOS>BOND
   1    1    2 2
   2    1    5 1
   3    1    6 1
   4    2    3 1
   5    3    4 2
   6    3   17 1
   7    4    5 1
   8    4   21 1
   9    5    7 1
  10    6   22 1
  11    6   23 1
  12    7    8 1
  13    7   24 1
  14    7   25 1
  15    8    9 ar
  16    8   13 ar
  17    9   10 ar
  18    9   14 1
  19   10   11 ar
  20   10   26 1
  21   11   12 ar
  22   11   27 1
  23   12   13 ar
  24   12   28 1
  25   13   29 1
  26   14   15 1
  27   15   30 1
  28   15   31 1
  29   15   32 1
  30   16   17 1
  31   16   20 1
  32   17   18 2
  33   18   19 1
  34   18   33 1
  35   19   20 2
  36   19   34 1
  37   20   35 1

#	End of record

