#	Name: ASD05430023
#	Creating user name:	WinNT
#	Creation time:	15. 06. 2019 20:59

#	Modifying user name:	WinNT
#	Modification time:	15. 06. 2019 20:59

#	Program:	/corina/corina34_cracker 3.40 0067  02.08.2006

@<TRIPOS>MOLECULE
ASD05430023
  66   71    0    0    0
SMALL
NO_CHARGES


@<TRIPOS>ATOM
   1 C1             0.0603     1.1745     0.4076 C.ar    
   2 C2             0.0200    -0.0134    -0.3218 C.ar    
   3 C3             1.1655    -0.4862    -0.9493 C.ar    
   4 C4             2.3471     0.2160    -0.8536 C.ar    
   5 C5             2.3950     1.4081    -0.1237 C.ar    
   6 C6             1.2420     1.8843     0.5075 C.ar    
   7 C7             4.8627    -0.0009     0.2146 C.3     
   8 C8             4.8270     1.5012     0.0670 C.2     
   9 C9             3.6566     2.1597    -0.0203 C.2     
  10 C10            6.2108    -0.4654     0.7618 C.3     
  11 C11            6.8322     0.5831     1.6872 C.3     
  12 N12            7.0819     1.8065     0.9275 N.pl3   
  13 C13            6.1087     2.2263     0.0217 C.2     
  14 N14           -1.1790    -0.7320    -0.4217 N.pl3   
  15 C15           -1.9919    -1.0929     0.6049 C.2     
  16 C16           -1.7559    -1.1985    -1.5745 C.2     
  17 C17           -2.8904    -1.8290    -1.2154 C.2     
  18 N18           -3.0097    -1.7494     0.1181 N.2     
  19 C19           -3.8607    -2.5033    -2.1508 C.3     
  20 C20           -0.9502     2.8601     1.7461 C.3     
  21 O21           -1.0641     1.6372     1.0158 O.3     
  22 C22            8.2937     2.6059     1.0932 C.3     
  23 C23            8.6926     3.1680    -0.2759 C.3     
  24 O24            7.5880     3.8431    -0.8690 O.3     
  25 N25            6.3424     3.1855    -0.8103 N.2     
  26 C26            8.0270     3.7398     2.0493 C.ar    
  27 C27            9.0758     4.2982     2.7550 C.ar    
  28 C28            8.8211     5.3409     3.6324 C.ar    
  29 C29            7.5128     5.7854     3.7678 C.ar    
  30 C30            6.5143     5.1762     3.0269 C.ar    
  31 N31            6.7966     4.1903     2.1982 N.ar    
  32 F32            7.2179     6.7986     4.6115 F       
  33 C33            6.0137    -1.7688     1.5452 C.3     
  34 N34            5.5014    -2.8053     0.6377 N.3     
  35 C35            6.4340    -3.0299    -0.4761 C.3     
  36 C36            6.6374    -1.7167    -1.2366 C.3     
  37 O37            7.1029    -0.7132    -0.3308 O.3     
  38 H38            1.1299    -1.4066    -1.5132 H       
  39 H39            3.2364    -0.1544    -1.3419 H       
  40 H40            1.2746     2.8045     1.0718 H       
  41 H41            4.0725    -0.3123     0.8978 H       
  42 H42            4.6942    -0.4604    -0.7594 H       
  43 H43            3.6429     3.2396    -0.0145 H       
  44 H44            6.1468     0.7971     2.5072 H       
  45 H45            7.7728     0.2043     2.0870 H       
  46 H46           -1.8241    -0.8737     1.6491 H       
  47 H47           -1.3742    -1.0821    -2.5780 H       
  48 H48           -3.5746    -3.5471    -2.2805 H       
  49 H49           -4.8654    -2.4514    -1.7314 H       
  50 H50           -3.8438    -1.9992    -3.1171 H       
  51 H51           -0.2148     2.7410     2.5418 H       
  52 H52           -0.6320     3.6567     1.0736 H       
  53 H53           -1.9169     3.1155     2.1802 H       
  54 H54            9.0968     1.9792     1.4809 H       
  55 H55            9.5195     3.8673    -0.1525 H       
  56 H56            9.0070     2.3505    -0.9246 H       
  57 H57           10.0815     3.9267     2.6248 H       
  58 H58            9.6211     5.7963     4.1973 H       
  59 H59            5.4936     5.5149     3.1258 H       
  60 H60            6.9677    -2.0901     1.9634 H       
  61 H61            5.2986    -1.6047     2.3513 H       
  62 H62            5.3191    -3.6638     1.1354 H       
  63 H63            7.3909    -3.3762    -0.0855 H       
  64 H64            6.0220    -3.7808    -1.1502 H       
  65 H65            7.3741    -1.8640    -2.0264 H       
  66 H66            5.6912    -1.4001    -1.6754 H       
@<TRIPOS>BOND
   1    1    2 ar
   2    1    6 ar
   3    1   21 1
   4    2    3 ar
   5    2   14 1
   6    3    4 ar
   7    3   38 1
   8    4    5 ar
   9    4   39 1
  10    5    6 ar
  11    5    9 1
  12    6   40 1
  13    7    8 1
  14    7   10 1
  15    7   41 1
  16    7   42 1
  17    8    9 2
  18    8   13 1
  19    9   43 1
  20   10   11 1
  21   10   33 1
  22   10   37 1
  23   11   12 1
  24   11   44 1
  25   11   45 1
  26   12   13 1
  27   12   22 1
  28   13   25 2
  29   14   15 1
  30   14   16 1
  31   15   18 2
  32   15   46 1
  33   16   17 2
  34   16   47 1
  35   17   18 1
  36   17   19 1
  37   19   48 1
  38   19   49 1
  39   19   50 1
  40   20   21 1
  41   20   51 1
  42   20   52 1
  43   20   53 1
  44   22   23 1
  45   22   26 1
  46   22   54 1
  47   23   24 1
  48   23   55 1
  49   23   56 1
  50   24   25 1
  51   26   27 ar
  52   26   31 ar
  53   27   28 ar
  54   27   57 1
  55   28   29 ar
  56   28   58 1
  57   29   30 ar
  58   29   32 1
  59   30   31 ar
  60   30   59 1
  61   33   34 1
  62   33   60 1
  63   33   61 1
  64   34   35 1
  65   34   62 1
  66   35   36 1
  67   35   63 1
  68   35   64 1
  69   36   37 1
  70   36   65 1
  71   36   66 1

#	End of record

