#	Name: ASD06600024
#	Creating user name:	WinNT
#	Creation time:	15. 06. 2019 21:07

#	Modifying user name:	WinNT
#	Modification time:	15. 06. 2019 21:07

#	Program:	/corina/corina34_cracker 3.40 0067  02.08.2006

@<TRIPOS>MOLECULE
ASD06600024
 311  314    0    0    0
SMALL
NO_CHARGES


@<TRIPOS>ATOM
   1 C1            -2.1910    14.9698    -1.6470 C.2     
   2 O2            -1.5795    13.9276    -1.7511 O.2     
   3 N3            -0.0555    16.0577    -2.0283 N.am    
   4 C4            -1.4999    16.2798    -1.9248 C.3     
   5 C5            -2.0217    16.8630    -3.2395 C.3     
   6 C6            -1.4100    18.2478    -3.4615 C.3     
   7 C7            -1.6313    15.9415    -4.3967 C.3     
   8 C8            -5.6677    13.8859    -1.3301 C.2     
   9 O9            -6.0945    14.9897    -1.5952 O.2     
  10 N10           -3.4900    14.9560    -1.2883 N.am    
  11 C11           -4.1898    13.6800    -1.1194 C.3     
  12 C12           -3.9454    13.1476     0.2940 C.3     
  13 C13           -2.4830    12.8258     0.4638 C.2     
  14 C14           -1.6740    13.3050     1.4278 C.2     
  15 N15           -0.4364    12.7608     1.2130 N.pl3   
  16 C16           -0.5324    11.9675     0.1243 C.2     
  17 N17           -1.7604    12.0074    -0.3154 N.2     
  18 C18           -8.7180    11.9748    -0.6922 C.2     
  19 O19           -8.1225    11.1294    -0.0586 O.2     
  20 N20           -6.5152    12.8433    -1.2238 N.am    
  21 C21           -7.9519    13.0434    -1.4287 C.3     
  22 C22           -8.2704    12.9611    -2.9229 C.3     
  23 C23          -12.1523    10.7226    -0.6768 C.2     
  24 O24          -12.5033    11.4590    -1.5744 O.2     
  25 N25          -10.0649    11.9587    -0.7377 N.am    
  26 C26          -10.8096    10.9199    -0.0218 C.3     
  27 C27          -11.0100    11.3474     1.4336 C.3     
  28 C28           -9.6514    11.4314     2.1322 C.3     
  29 C29          -11.6897    12.7176     1.4737 C.3     
  30 C30          -15.1981     8.8762     0.1459 C.2     
  31 O31          -14.7543     8.5096     1.2134 O.2     
  32 N32          -12.9633     9.7279    -0.2653 N.am    
  33 C33          -14.3071     9.5958    -0.8335 C.3     
  34 C34          -14.2335     8.7985    -2.1372 C.3     
  35 C35          -13.4437     9.5765    -3.1580 C.2     
  36 C36          -12.3622     9.1336    -3.8271 C.2     
  37 N37          -11.9602    10.1521    -4.6486 N.pl3   
  38 C38          -12.8106    11.1826    -4.4527 C.2     
  39 N39          -13.6982    10.8294    -3.5636 N.2     
  40 C40          -18.4798     7.2689     0.0433 C.2     
  41 O41          -18.5513     7.3654    -1.1636 O.2     
  42 N42          -16.4882     8.6398    -0.1646 N.am    
  43 C43          -17.3544     7.9402     0.7875 C.3     
  44 C44          -17.9315     8.9456     1.7860 C.3     
  45 C45          -21.6781     5.7305     0.9191 C.2     
  46 O46          -21.6100     6.1112     2.0686 O.2     
  47 N47          -19.4068     6.5613     0.7188 N.am    
  48 C48          -20.5009     5.9087    -0.0046 C.3     
  49 C49          -20.0354     4.5407    -0.5073 C.3     
  50 C50          -18.9391     4.7257    -1.5246 C.ar    
  51 C51          -17.6187     4.7677    -1.1165 C.ar    
  52 C52          -16.6120     4.9376    -2.0471 C.ar    
  53 C53          -16.9267     5.0657    -3.3921 C.ar    
  54 O54          -15.9381     5.2325    -4.3096 O.3     
  55 C55          -18.2523     5.0227    -3.7991 C.ar    
  56 C56          -19.2550     4.8474    -2.8652 C.ar    
  57 C57          -24.7968     3.8238     0.8856 C.2     
  58 O58          -24.4752     3.2086    -0.1088 O.2     
  59 N59          -22.8067     5.1482     0.4679 N.am    
  60 C60          -23.9512     4.9750     1.3659 C.3     
  61 C61          -24.7899     6.2546     1.3758 C.3     
  62 C62          -23.9706     7.3968     1.9800 C.3     
  63 C63          -24.8093     8.6763     1.9899 C.3     
  64 N64          -24.0248     9.7700     2.5684 N.pl3   
  65 C65          -24.5744    11.0251     2.6818 C.2     
  66 N66          -23.8764    11.9981     3.1964 N.2     
  67 N67          -25.8602    11.2538     2.2523 N.pl3   
  68 C68          -28.1482     2.5389     1.5788 C.2     
  69 O69          -28.4415     3.5069     2.2481 O.2     
  70 N70          -25.9105     3.4779     1.5613 N.am    
  71 C71          -26.7326     2.3587     1.0944 C.3     
  72 C72          -26.1684     1.0472     1.6444 C.3     
  73 C73          -24.7993     0.8061     1.0626 C.2     
  74 C74          -23.6689     0.5907     1.7621 C.2     
  75 N75          -22.6642     0.4197     0.8483 N.pl3   
  76 C76          -23.2160     0.5367    -0.3787 C.2     
  77 N77          -24.4941     0.7628    -0.2428 N.2     
  78 C78          -31.1429     0.4563     1.8188 C.2     
  79 O79          -30.5366    -0.5484     1.5123 O.2     
  80 N80          -29.0883     1.6244     1.2682 N.am    
  81 C81          -30.4644     1.7996     1.7391 C.3     
  82 C82          -31.2266     2.6989     0.7639 C.3     
  83 C83          -30.6129     4.1004     0.7766 C.3     
  84 C84          -31.3751     4.9998    -0.1987 C.3     
  85 N85          -30.7875     6.3417    -0.1865 N.pl3   
  86 C86          -31.3098     7.3281    -0.9893 C.2     
  87 N87          -32.3276     7.0694    -1.7612 N.2     
  88 N88          -30.7584     8.5875    -0.9778 N.pl3   
  89 C89          -34.5737    -0.7524     2.1819 C.2     
  90 O90          -35.0393     0.3587     2.0412 O.2     
  91 N91          -32.4234     0.3715     2.2305 N.am    
  92 C92          -33.0830    -0.9343     2.3079 C.3     
  93 C93          -32.7611    -1.5894     3.6526 C.3     
  94 C94          -31.2624    -1.8878     3.7287 C.3     
  95 C95          -30.9404    -2.5429     5.0733 C.3     
  96 N96          -29.5054    -2.8286     5.1462 N.pl3   
  97 C97          -28.9787    -3.4213     6.2693 C.2     
  98 N98          -29.7560    -3.7289     7.2693 N.2     
  99 N99          -27.6320    -3.6894     6.3377 N.pl3   
 100 C100         -37.5435    -2.8019     2.7673 C.2     
 101 O101         -36.8989    -3.6854     3.2915 O.2     
 102 N102         -35.3895    -1.8243     2.2254 N.am    
 103 C103         -36.8386    -1.6475     2.1029 C.3     
 104 C104         -37.2231    -1.5987     0.6228 C.3     
 105 C105         -36.6076    -0.3559    -0.0234 C.3     
 106 C106         -36.8868    -0.3719    -1.5276 C.3     
 107 C107         -37.2242     0.8996     0.5966 C.3     
 108 C108         -40.9611    -4.1173     2.7435 C.2     
 109 O109         -41.4321    -3.1709     2.1491 O.2     
 110 N110         -38.8902    -2.8526     2.7789 N.am    
 111 C111         -39.5744    -4.0266     3.3266 C.3     
 112 C112         -39.6684    -3.8983     4.8483 C.3     
 113 C113         -40.3498    -5.1415     5.4237 C.3     
 114 C114         -39.4331    -6.3536     5.2467 C.3     
 115 C115         -40.6295    -4.9267     6.9125 C.3     
 116 C116         -43.8205    -6.3598     3.1406 C.2     
 117 O117         -43.2768    -6.9872     4.0248 O.2     
 118 N118         -41.6778    -5.2502     2.8826 N.am    
 119 C119         -43.0501    -5.3159     2.3740 C.3     
 120 C120         -43.0267    -5.6868     0.8898 C.3     
 121 O121         -42.5033    -7.0077     0.7372 O.3     
 122 C122         -45.6235    -8.9654     2.9726 C.2     
 123 O123         -44.9015    -9.0719     2.0096 O.2     
 124 N124         -45.1137    -6.5963     2.8437 N.am    
 125 C125         -45.8626    -7.6112     3.5889 C.3     
 126 C126         -47.3563    -7.2836     3.5366 C.3     
 127 C127         -48.1260    -8.2705     4.4166 C.3     
 128 C128         -49.6014    -7.8682     4.4639 C.3     
 129 C129         -47.8521    -7.3932     2.0933 C.3     
 130 O130         -46.2125   -10.0533     3.4934 O.3     
 131 C131           0.8015    17.0657    -1.7715 C.2     
 132 O132           0.3769    18.1567    -1.4547 O.2     
 133 C133          18.0320    24.2763    -0.2536 C.3     
 134 C134          16.5236    24.5083    -0.1455 C.3     
 135 C135          15.7828    23.2136    -0.4857 C.3     
 136 C136          14.2743    23.4456    -0.3776 C.3     
 137 C137          13.5335    22.1508    -0.7177 C.3     
 138 C138          12.0251    22.3829    -0.6096 C.3     
 139 C139          11.2842    21.0881    -0.9498 C.3     
 140 C140           9.7758    21.3201    -0.8417 C.3     
 141 C141           9.0350    20.0254    -1.1819 C.3     
 142 C142           7.5266    20.2574    -1.0737 C.3     
 143 C143           6.7857    18.9627    -1.4139 C.3     
 144 C144           5.2773    19.1947    -1.3058 C.3     
 145 C145           4.5365    17.8999    -1.6460 C.3     
 146 C146           3.0280    18.1319    -1.5378 C.3     
 147 C147           2.2872    16.8372    -1.8780 C.3     
 148 H148           0.2840    15.1851    -2.2817 H       
 149 H149          -1.7029    16.9772    -1.1120 H       
 150 H150          -3.1074    16.9485    -3.1935 H       
 151 H151          -0.3374    18.1487    -3.6281 H       
 152 H152          -1.8715    18.7134    -4.3323 H       
 153 H153          -1.5854    18.8677    -2.5823 H       
 154 H154          -2.0670    14.9550    -4.2386 H       
 155 H155          -2.0030    16.3570    -5.3334 H       
 156 H156          -0.5456    15.8560    -4.4428 H       
 157 H157          -3.9617    15.7909    -1.1419 H       
 158 H158          -3.8155    12.9611    -1.8482 H       
 159 H159          -4.2381    13.9035     1.0227 H       
 160 H160          -4.5365    12.2450     0.4495 H       
 161 H161          -1.9486    13.9876     2.2183 H       
 162 H162           0.3606    12.9161     1.7436 H       
 163 H163           0.2727    11.3922    -0.3082 H       
 164 H164          -6.1739    11.9605    -1.0118 H       
 165 H165          -8.2400    14.0238    -1.0493 H       
 166 H166          -9.3394    13.1100    -3.0753 H       
 167 H167          -7.7163    13.7340    -3.4556 H       
 168 H168          -7.9824    11.9808    -3.3024 H       
 169 H169         -10.5412    12.6349    -1.2444 H       
 170 H170         -10.2497     9.9852    -0.0521 H       
 171 H171         -11.6365    10.6160     1.9441 H       
 172 H172          -9.0656    12.2381     1.6916 H       
 173 H173          -9.8004    11.6284     3.1939 H       
 174 H174          -9.1205    10.4874     2.0088 H       
 175 H175         -12.6576    12.6577     0.9760 H       
 176 H176         -11.8325    13.0221     2.5105 H       
 177 H177         -11.0632    13.4490     0.9632 H       
 178 H178         -12.6571     9.0994     0.4071 H       
 179 H179         -14.7149    10.5862    -1.0359 H       
 180 H180         -13.7444     7.8423    -1.9512 H       
 181 H181         -15.2414     8.6239    -2.5138 H       
 182 H182         -11.9005     8.1618    -3.7334 H       
 183 H183         -11.2054    10.1365    -5.2576 H       
 184 H184         -12.7661    12.1392    -4.9521 H       
 185 H185         -16.8431     8.9330    -1.0184 H       
 186 H186         -16.7737     7.1889     1.3228 H       
 187 H187         -18.5759     8.4250     2.4944 H       
 188 H188         -17.1175     9.4311     2.3243 H       
 189 H189         -18.5121     9.6968     1.2508 H       
 190 H190         -19.3496     6.4841     1.6841 H       
 191 H191         -20.7950     6.5267    -0.8530 H       
 192 H192         -19.6581     3.9547     0.3309 H       
 193 H193         -20.8739     4.0182    -0.9677 H       
 194 H194         -17.3742     4.6679    -0.0693 H       
 195 H195         -15.5808     4.9711    -1.7277 H       
 196 H196         -15.5941     4.4047    -4.6721 H       
 197 H197         -18.4998     5.1226    -4.8456 H       
 198 H198         -20.2868     4.8095    -3.1820 H       
 199 H199         -22.8612     4.8438    -0.4515 H       
 200 H200         -23.5935     4.7672     2.3743 H       
 201 H201         -25.0733     6.5111     0.3550 H       
 202 H202         -25.6877     6.0959     1.9732 H       
 203 H203         -23.6871     7.1402     3.0007 H       
 204 H204         -23.0728     7.5554     1.3826 H       
 205 H205         -25.0927     8.9329     0.9691 H       
 206 H206         -25.7071     8.5177     2.5873 H       
 207 H207         -23.1176     9.6086     2.8714 H       
 208 H208         -24.2641    12.8836     3.2765 H       
 209 H209         -26.3796    10.5297     1.8692 H       
 210 H210         -26.2479    12.1393     2.3323 H       
 211 H211         -26.1677     3.9699     2.3566 H       
 212 H212         -26.7223     2.3301     0.0048 H       
 213 H213         -26.0958     1.1099     2.7302 H       
 214 H214         -26.8292     0.2245     1.3713 H       
 215 H215         -23.5733     0.5591     2.8374 H       
 216 H216         -21.7303     0.2468     1.0452 H       
 217 H217         -22.6879     0.4530    -1.3170 H       
 218 H218         -28.8537     0.8503     0.7329 H       
 219 H219         -30.4546     2.2608     2.7267 H       
 220 H220         -31.1609     2.2827    -0.2414 H       
 221 H221         -32.2725     2.7575     1.0652 H       
 222 H222         -30.6786     4.5167     1.7818 H       
 223 H223         -29.5671     4.0419     0.4752 H       
 224 H224         -31.3094     4.5835    -1.2039 H       
 225 H225         -32.4210     5.0583     0.1027 H       
 226 H226         -30.0300     6.5343     0.3880 H       
 227 H227         -32.6961     7.7653    -2.3276 H       
 228 H228         -30.0009     8.7801    -0.4033 H       
 229 H229         -31.1268     9.2834    -1.5442 H       
 230 H230         -32.9083     1.1751     2.4756 H       
 231 H231         -32.7250    -1.5707     1.4987 H       
 232 H232         -33.0385    -0.9137     4.4616 H       
 233 H233         -33.3219    -2.5192     3.7473 H       
 234 H234         -30.9849    -2.5635     2.9196 H       
 235 H235         -30.7015    -0.9580     3.6339 H       
 236 H236         -31.2179    -1.8672     5.8823 H       
 237 H237         -31.5013    -3.4727     5.1680 H       
 238 H238         -28.9269    -2.5996     4.4020 H       
 239 H239         -29.3844    -4.1471     8.0617 H       
 240 H240         -27.0535    -3.4604     5.5935 H       
 241 H241         -27.2604    -4.1076     7.1301 H       
 242 H242         -35.0171    -2.7129     2.3379 H       
 243 H243         -37.1330    -0.7156     2.5856 H       
 244 H244         -36.8502    -2.4916     0.1210 H       
 245 H245         -38.3083    -1.5565     0.5305 H       
 246 H246         -35.5309    -0.3537     0.1463 H       
 247 H247         -37.9635    -0.3741    -1.6972 H       
 248 H248         -36.4483     0.5135    -1.9879 H       
 249 H249         -36.4476    -1.2663    -1.9692 H       
 250 H250         -38.3009     0.8974     0.4269 H       
 251 H251         -37.0252     0.9110     1.6682 H       
 252 H252         -36.7857     1.7850     0.1362 H       
 253 H253         -39.4065    -2.1117     2.4246 H       
 254 H254         -39.0135    -4.9257     3.0716 H       
 255 H255         -38.6665    -3.8062     5.2677 H       
 256 H256         -40.2517    -3.0135     5.1030 H       
 257 H257         -41.2891    -5.3166     4.8991 H       
 258 H258         -39.9451    -7.2504     5.5953 H       
 259 H259         -39.1795    -6.4665     4.1926 H       
 260 H260         -38.5214    -6.2074     5.8260 H       
 261 H261         -41.2825    -4.0632     7.0386 H       
 262 H262         -41.1149    -5.8124     7.3225 H       
 263 H263         -39.6902    -4.7516     7.4371 H       
 264 H264         -41.2850    -6.0220     3.3195 H       
 265 H265         -43.5306    -4.3454     2.4985 H       
 266 H266         -44.0400    -5.6490     0.4899 H       
 267 H267         -42.3960    -4.9813     0.3489 H       
 268 H268         -42.4593    -7.3097    -0.1804 H       
 269 H269         -45.5486    -6.0946     2.1366 H       
 270 H270         -45.5288    -7.6201     4.6265 H       
 271 H271         -47.5187    -6.2691     3.9005 H       
 272 H272         -48.0362    -9.2742     4.0012 H       
 273 H273         -47.7130    -8.2564     5.4253 H       
 274 H274         -49.6912    -6.8645     4.8793 H       
 275 H275         -50.0143    -7.8823     3.4553 H       
 276 H276         -50.1497    -8.5713     5.0909 H       
 277 H277         -48.9162    -7.1598     2.0560 H       
 278 H278         -47.3038    -6.6901     1.4664 H       
 279 H279         -47.6897    -8.4077     1.7294 H       
 280 H280         -46.0290   -10.9000     3.0638 H       
 281 H281          18.3301    23.4932     0.4435 H       
 282 H282          18.2808    23.9717    -1.2702 H       
 283 H283          18.5598    25.1987    -0.0113 H       
 284 H284          16.2748    24.8129     0.8711 H       
 285 H285          16.2255    25.2914    -0.8427 H       
 286 H286          16.0316    22.9090    -1.5023 H       
 287 H287          16.0808    22.4305     0.2115 H       
 288 H288          14.0255    23.7502     0.6390 H       
 289 H289          13.9763    24.2287    -1.0747 H       
 290 H290          13.7823    21.8462    -1.7343 H       
 291 H291          13.8316    21.3678    -0.0206 H       
 292 H292          11.7763    22.6875     0.4070 H       
 293 H293          11.7270    23.1659    -1.3068 H       
 294 H294          11.5330    20.7835    -1.9664 H       
 295 H295          11.5823    20.3050    -0.2526 H       
 296 H296           9.5270    21.6247     0.1749 H       
 297 H297           9.4777    22.1032    -1.5388 H       
 298 H298           9.2838    19.7208    -2.1984 H       
 299 H299           9.3330    19.2423    -0.4847 H       
 300 H300           7.2778    20.5620    -0.0571 H       
 301 H301           7.2285    21.0405    -1.7709 H       
 302 H302           7.0345    18.6580    -2.4305 H       
 303 H303           7.0838    18.1796    -0.7167 H       
 304 H304           5.0285    19.4993    -0.2892 H       
 305 H305           4.9792    19.9777    -2.0029 H       
 306 H306           4.7853    17.5953    -2.6625 H       
 307 H307           4.8345    17.1168    -0.9488 H       
 308 H308           2.7792    18.4365    -0.5213 H       
 309 H309           2.7300    18.9150    -2.2350 H       
 310 H310           2.5853    16.0541    -1.1808 H       
 311 H311           2.5360    16.5326    -2.8946 H       
@<TRIPOS>BOND
   1    1    2 2
   2    1    4 1
   3    1   10 am
   4    3  131 am
   5    3    4 1
   6    3  148 1
   7    4    5 1
   8    4  149 1
   9    5    6 1
  10    5    7 1
  11    5  150 1
  12    6  151 1
  13    6  152 1
  14    6  153 1
  15    7  154 1
  16    7  155 1
  17    7  156 1
  18    8    9 2
  19    8   11 1
  20    8   20 am
  21   10   11 1
  22   10  157 1
  23   11   12 1
  24   11  158 1
  25   12   13 1
  26   12  159 1
  27   12  160 1
  28   13   14 2
  29   13   17 1
  30   14   15 1
  31   14  161 1
  32   15   16 1
  33   15  162 1
  34   16   17 2
  35   16  163 1
  36   18   19 2
  37   18   21 1
  38   18   25 am
  39   20   21 1
  40   20  164 1
  41   21   22 1
  42   21  165 1
  43   22  166 1
  44   22  167 1
  45   22  168 1
  46   23   24 2
  47   23   26 1
  48   23   32 am
  49   25   26 1
  50   25  169 1
  51   26   27 1
  52   26  170 1
  53   27   28 1
  54   27   29 1
  55   27  171 1
  56   28  172 1
  57   28  173 1
  58   28  174 1
  59   29  175 1
  60   29  176 1
  61   29  177 1
  62   30   31 2
  63   30   33 1
  64   30   42 am
  65   32   33 1
  66   32  178 1
  67   33   34 1
  68   33  179 1
  69   34   35 1
  70   34  180 1
  71   34  181 1
  72   35   36 2
  73   35   39 1
  74   36   37 1
  75   36  182 1
  76   37   38 1
  77   37  183 1
  78   38   39 2
  79   38  184 1
  80   40   41 2
  81   40   43 1
  82   40   47 am
  83   42   43 1
  84   42  185 1
  85   43   44 1
  86   43  186 1
  87   44  187 1
  88   44  188 1
  89   44  189 1
  90   45   46 2
  91   45   48 1
  92   45   59 am
  93   47   48 1
  94   47  190 1
  95   48   49 1
  96   48  191 1
  97   49   50 1
  98   49  192 1
  99   49  193 1
 100   50   51 ar
 101   50   56 ar
 102   51   52 ar
 103   51  194 1
 104   52   53 ar
 105   52  195 1
 106   53   54 1
 107   53   55 ar
 108   54  196 1
 109   55   56 ar
 110   55  197 1
 111   56  198 1
 112   57   58 2
 113   57   60 1
 114   57   70 am
 115   59   60 1
 116   59  199 1
 117   60   61 1
 118   60  200 1
 119   61   62 1
 120   61  201 1
 121   61  202 1
 122   62   63 1
 123   62  203 1
 124   62  204 1
 125   63   64 1
 126   63  205 1
 127   63  206 1
 128   64   65 1
 129   64  207 1
 130   65   66 2
 131   65   67 1
 132   66  208 1
 133   67  209 1
 134   67  210 1
 135   68   69 2
 136   68   71 1
 137   68   80 am
 138   70   71 1
 139   70  211 1
 140   71   72 1
 141   71  212 1
 142   72   73 1
 143   72  213 1
 144   72  214 1
 145   73   74 2
 146   73   77 1
 147   74   75 1
 148   74  215 1
 149   75   76 1
 150   75  216 1
 151   76   77 2
 152   76  217 1
 153   78   79 2
 154   78   81 1
 155   78   91 am
 156   80   81 1
 157   80  218 1
 158   81   82 1
 159   81  219 1
 160   82   83 1
 161   82  220 1
 162   82  221 1
 163   83   84 1
 164   83  222 1
 165   83  223 1
 166   84   85 1
 167   84  224 1
 168   84  225 1
 169   85   86 1
 170   85  226 1
 171   86   87 2
 172   86   88 1
 173   87  227 1
 174   88  228 1
 175   88  229 1
 176   89   90 2
 177   89   92 1
 178   89  102 am
 179   91   92 1
 180   91  230 1
 181   92   93 1
 182   92  231 1
 183   93   94 1
 184   93  232 1
 185   93  233 1
 186   94   95 1
 187   94  234 1
 188   94  235 1
 189   95   96 1
 190   95  236 1
 191   95  237 1
 192   96   97 1
 193   96  238 1
 194   97   98 2
 195   97   99 1
 196   98  239 1
 197   99  240 1
 198   99  241 1
 199  100  101 2
 200  100  103 1
 201  100  110 am
 202  102  103 1
 203  102  242 1
 204  103  104 1
 205  103  243 1
 206  104  105 1
 207  104  244 1
 208  104  245 1
 209  105  106 1
 210  105  107 1
 211  105  246 1
 212  106  247 1
 213  106  248 1
 214  106  249 1
 215  107  250 1
 216  107  251 1
 217  107  252 1
 218  108  109 2
 219  108  111 1
 220  108  118 am
 221  110  111 1
 222  110  253 1
 223  111  112 1
 224  111  254 1
 225  112  113 1
 226  112  255 1
 227  112  256 1
 228  113  114 1
 229  113  115 1
 230  113  257 1
 231  114  258 1
 232  114  259 1
 233  114  260 1
 234  115  261 1
 235  115  262 1
 236  115  263 1
 237  116  117 2
 238  116  119 1
 239  116  124 am
 240  118  119 1
 241  118  264 1
 242  119  120 1
 243  119  265 1
 244  120  121 1
 245  120  266 1
 246  120  267 1
 247  121  268 1
 248  122  123 2
 249  122  125 1
 250  122  130 1
 251  124  125 1
 252  124  269 1
 253  125  126 1
 254  125  270 1
 255  126  127 1
 256  126  129 1
 257  126  271 1
 258  127  128 1
 259  127  272 1
 260  127  273 1
 261  128  274 1
 262  128  275 1
 263  128  276 1
 264  129  277 1
 265  129  278 1
 266  129  279 1
 267  130  280 1
 268  131  132 2
 269  131  147 1
 270  133  134 1
 271  133  281 1
 272  133  282 1
 273  133  283 1
 274  134  135 1
 275  134  284 1
 276  134  285 1
 277  135  136 1
 278  135  286 1
 279  135  287 1
 280  136  137 1
 281  136  288 1
 282  136  289 1
 283  137  138 1
 284  137  290 1
 285  137  291 1
 286  138  139 1
 287  138  292 1
 288  138  293 1
 289  139  140 1
 290  139  294 1
 291  139  295 1
 292  140  141 1
 293  140  296 1
 294  140  297 1
 295  141  142 1
 296  141  298 1
 297  141  299 1
 298  142  143 1
 299  142  300 1
 300  142  301 1
 301  143  144 1
 302  143  302 1
 303  143  303 1
 304  144  145 1
 305  144  304 1
 306  144  305 1
 307  145  146 1
 308  145  306 1
 309  145  307 1
 310  146  147 1
 311  146  308 1
 312  146  309 1
 313  147  310 1
 314  147  311 1

#	End of record

