#	Name: ASD01918059
#	Creating user name:	WinNT
#	Creation time:	15. 06. 2019 20:10

#	Modifying user name:	WinNT
#	Modification time:	15. 06. 2019 20:10

#	Program:	/corina/corina34_cracker 3.40 0067  02.08.2006

@<TRIPOS>MOLECULE
ASD01918059
  43   47    0    0    0
SMALL
NO_CHARGES


@<TRIPOS>ATOM
   1 C1            -0.0780     1.4957    -0.1575 C.3     
   2 C2            -0.0228    -0.0066    -0.0679 C.2     
   3 C3             1.0422    -0.7531    -0.4522 C.2     
   4 C4             2.3139    -0.1866    -1.0241 C.3     
   5 C5             2.0414     1.2559    -1.4704 C.3     
   6 C6             1.3520     2.0213    -0.3381 C.3     
   7 N7             0.7091    -2.0414    -0.2151 N.pl3   
   8 N8            -0.4841    -2.0569     0.2783 N.2     
   9 N9            -0.9438    -0.8557     0.3763 N.2     
  10 C10            1.5160    -3.1624    -0.4618 C.ar    
  11 C11            1.3081     3.4887    -0.6782 C.2     
  12 N12            1.8478     4.4633     0.0105 N.2     
  13 C13            1.5545     5.5946    -0.6698 C.2     
  14 N14            0.8606     5.2437    -1.7214 N.2     
  15 O15            0.7160     4.0397    -1.7425 O.3     
  16 C16            1.9464     6.9754    -0.2937 C.ar    
  17 C17            1.5711     8.0514    -1.0958 C.ar    
  18 C18            1.9376     9.3335    -0.7424 C.ar    
  19 C19            2.6784     9.5523     0.4080 C.ar    
  20 C20            3.0542     8.4852     1.2082 C.ar    
  21 C21            2.6861     7.2005     0.8657 C.ar    
  22 F22            3.0357    10.8094     0.7502 F       
  23 C23            2.8696    -3.1249    -0.1564 C.ar    
  24 C24            3.6624    -4.2293    -0.3998 C.ar    
  25 C25            3.1077    -5.3735    -0.9483 C.ar    
  26 C26            1.7574    -5.4127    -1.2536 C.ar    
  27 C27            0.9605    -4.3122    -1.0062 C.ar    
  28 F28            3.8847    -6.4528    -1.1862 F       
  29 H29           -0.6883     1.7906    -1.0111 H       
  30 H30           -0.5060     1.9028     0.7587 H       
  31 H31            3.0944    -0.1945    -0.2632 H       
  32 H32            2.6290    -0.7828    -1.8805 H       
  33 H33            2.9843     1.7439    -1.7171 H       
  34 H34            1.3959     1.2485    -2.3487 H       
  35 H35            1.9102     1.8801     0.5874 H       
  36 H36            0.9943     7.8817    -1.9930 H       
  37 H37            1.6471    10.1680    -1.3635 H       
  38 H38            3.6321     8.6600     2.1036 H       
  39 H39            2.9753     6.3699     1.4925 H       
  40 H40            3.3026    -2.2326     0.2711 H       
  41 H41            4.7156    -4.2004    -0.1627 H       
  42 H42            1.3266    -6.3057    -1.6816 H       
  43 H43           -0.0933    -4.3446    -1.2403 H       
@<TRIPOS>BOND
   1    1    2 1
   2    1    6 1
   3    1   29 1
   4    1   30 1
   5    2    9 1
   6    2    3 2
   7    3    4 1
   8    3    7 1
   9    4    5 1
  10    4   31 1
  11    4   32 1
  12    5    6 1
  13    5   33 1
  14    5   34 1
  15    6   11 1
  16    6   35 1
  17    7    8 1
  18    7   10 1
  19    8    9 2
  20   10   23 ar
  21   10   27 ar
  22   11   12 2
  23   11   15 1
  24   12   13 1
  25   13   14 2
  26   13   16 1
  27   14   15 1
  28   16   17 ar
  29   16   21 ar
  30   17   18 ar
  31   17   36 1
  32   18   19 ar
  33   18   37 1
  34   19   20 ar
  35   19   22 1
  36   20   21 ar
  37   20   38 1
  38   21   39 1
  39   23   24 ar
  40   23   40 1
  41   24   25 ar
  42   24   41 1
  43   25   26 ar
  44   25   28 1
  45   26   27 ar
  46   26   42 1
  47   27   43 1

#	End of record

