#	Name: ASD03090562
#	Creating user name:	WinNT
#	Creation time:	15. 06. 2019 20:29

#	Modifying user name:	WinNT
#	Modification time:	15. 06. 2019 20:29

#	Program:	/corina/corina34_cracker 3.40 0067  02.08.2006

@<TRIPOS>MOLECULE
ASD03090562
  38   40    0    0    0
SMALL
NO_CHARGES


@<TRIPOS>ATOM
   1 N1            -0.0162     1.3436     0.0094 N.am    
   2 C2             0.0197     0.1477     0.6300 C.2     
   3 O3             1.0733    -0.2850     1.0557 O.2     
   4 N4            -1.1123    -0.5685     0.7788 N.am    
   5 S5            -2.4201    -2.8295     1.6863 S.3     
   6 C6            -1.0753    -1.8024     1.4192 C.2     
   7 N7            -0.0152    -2.3676     1.9132 N.2     
   8 N8            -0.1548    -3.4949     2.4640 N.2     
   9 C9            -1.3532    -3.9855     2.4845 C.2     
  10 C10           -1.7627    -5.3065     3.0831 C.3     
  11 C11           -1.1134    -6.5706     2.5162 C.3     
  12 C12           -0.7178    -6.0641     3.9047 C.3     
  13 C13            1.1451     2.1276    -0.0710 C.ar    
  14 C14            1.0448     3.5109    -0.1996 C.ar    
  15 C15            2.1922     4.2822    -0.2787 C.ar    
  16 C16            3.4390     3.6766    -0.2299 C.ar    
  17 C17            3.5377     2.2984    -0.1017 C.ar    
  18 C18            2.3934     1.5263    -0.0167 C.ar    
  19 O19            4.5657     4.4341    -0.3081 O.3     
  20 C20            4.3903     5.8462    -0.4394 C.3     
  21 O21           -0.1785     4.1032    -0.2478 O.3     
  22 C22           -0.2056     5.5258    -0.3805 C.3     
  23 Cl23           5.0996     1.5431    -0.0414 Cl      
  24 H24           -0.8437     1.6606    -0.3851 H       
  25 H25           -1.9528    -0.2233     0.4393 H       
  26 H26           -2.8022    -5.3752     3.4040 H       
  27 H27           -1.7256    -7.4710     2.4645 H       
  28 H28           -0.3900    -6.4468     1.7103 H       
  29 H29            0.2659    -5.6071     4.0122 H       
  30 H30           -1.0696    -6.6313     4.7664 H       
  31 H31            2.1162     5.3549    -0.3788 H       
  32 H32            2.4721     0.4543     0.0878 H       
  33 H33            3.8301     6.0597    -1.3497 H       
  34 H34            3.8414     6.2259     0.4224 H       
  35 H35            5.3655     6.3303    -0.4910 H       
  36 H36            0.3063     5.9797     0.4680 H       
  37 H37            0.2960     5.8142    -1.3042 H       
  38 H38           -1.2400     5.8686    -0.4065 H       
@<TRIPOS>BOND
   1    1    2 am
   2    1   13 1
   3    1   24 1
   4    2    3 2
   5    2    4 am
   6    4    6 1
   7    4   25 1
   8    5    6 1
   9    5    9 1
  10    6    7 2
  11    7    8 1
  12    8    9 2
  13    9   10 1
  14   10   11 1
  15   10   12 1
  16   10   26 1
  17   11   12 1
  18   11   27 1
  19   11   28 1
  20   12   29 1
  21   12   30 1
  22   13   14 ar
  23   13   18 ar
  24   14   15 ar
  25   14   21 1
  26   15   16 ar
  27   15   31 1
  28   16   17 ar
  29   16   19 1
  30   17   18 ar
  31   17   23 1
  32   18   32 1
  33   19   20 1
  34   20   33 1
  35   20   34 1
  36   20   35 1
  37   21   22 1
  38   22   36 1
  39   22   37 1
  40   22   38 1

#	End of record

