#	Name: ASD01940702
#	Creating user name:	WinNT
#	Creation time:	15. 06. 2019 20:13

#	Modifying user name:	WinNT
#	Modification time:	15. 06. 2019 20:13

#	Program:	/corina/corina34_cracker 3.40 0067  02.08.2006

@<TRIPOS>MOLECULE
ASD01940702
  45   47    0    0    0
SMALL
NO_CHARGES


@<TRIPOS>ATOM
   1 C1             0.4743     0.4146    -1.4833 C.ar    
   2 C2             0.0106    -0.2125    -0.3415 C.ar    
   3 C3             0.6401    -0.0008     0.8733 C.ar    
   4 C4             1.7382     0.8409     0.9502 C.ar    
   5 C5             2.2085     1.4729    -0.1932 C.ar    
   6 C6             1.5730     1.2581    -1.4150 C.ar    
   7 N7             2.0436     1.8929    -2.5723 N.am    
   8 S8             0.9756     2.3930    -3.7349 S.o2    
   9 C9             0.0138     3.7048    -2.9319 C.3     
  10 O10            1.7997     2.9341    -4.7583 O.2     
  11 O11            0.1611     1.2538    -3.9759 O.2     
  12 F12            0.1826    -0.6156     1.9859 F       
  13 F13            2.3504     1.0468     2.1368 F       
  14 N14            3.3188     2.3254    -0.1188 N.pl3   
  15 C15            4.5842     1.8578    -0.4828 C.ar    
  16 C16            5.6969     2.6808    -0.3474 C.ar    
  17 C17            4.7346     0.5680    -0.9752 C.ar    
  18 C18            5.9871     0.1086    -1.3336 C.ar    
  19 C19            7.0909     0.9309    -1.2028 C.ar    
  20 C20            6.9465     2.2145    -0.7079 C.ar    
  21 Cl21           5.5161     4.2919     0.2732 Cl      
  22 C22           -1.1115     4.1811    -3.8671 C.3     
  23 C23           -2.4403     3.9059    -3.1334 C.3     
  24 C24           -2.0465     3.8674    -1.6359 C.3     
  25 C25           -0.6705     3.1568    -1.6625 C.3     
  26 C26            8.4554     0.4255    -1.5946 C.3     
  27 F27            8.6907     0.7153    -2.9429 F       
  28 F28            9.4281     1.0503    -0.8068 F       
  29 F29            8.5143    -0.9584    -1.3979 F       
  30 H30           -0.0169     0.2438    -2.4299 H       
  31 H31           -0.8452    -0.8689    -0.3973 H       
  32 H32            2.9949     2.0395    -2.6923 H       
  33 H33            0.6646     4.5406    -2.6749 H       
  34 H34            3.2087     3.2398     0.1853 H       
  35 H35            3.8732    -0.0754    -1.0774 H       
  36 H36            6.1044    -0.8945    -1.7163 H       
  37 H37            7.8107     2.8543    -0.6074 H       
  38 H38           -1.0073     5.2482    -4.0633 H       
  39 H39           -1.0797     3.6240    -4.8035 H       
  40 H40           -3.1526     4.7096    -3.3200 H       
  41 H41           -2.8558     2.9471    -3.4434 H       
  42 H42           -1.9524     4.8766    -1.2352 H       
  43 H43           -2.7693     3.2882    -1.0612 H       
  44 H44           -0.8002     2.0769    -1.7350 H       
  45 H45           -0.0912     3.4137    -0.7757 H       
@<TRIPOS>BOND
   1    1    2 ar
   2    1    6 ar
   3    1   30 1
   4    2    3 ar
   5    2   31 1
   6    3    4 ar
   7    3   12 1
   8    4    5 ar
   9    4   13 1
  10    5    6 ar
  11    5   14 1
  12    6    7 1
  13    7    8 am
  14    7   32 1
  15    8    9 1
  16    8   10 2
  17    8   11 2
  18    9   22 1
  19    9   25 1
  20    9   33 1
  21   14   15 1
  22   14   34 1
  23   15   16 ar
  24   15   17 ar
  25   16   21 1
  26   16   20 ar
  27   17   18 ar
  28   17   35 1
  29   18   19 ar
  30   18   36 1
  31   19   20 ar
  32   19   26 1
  33   20   37 1
  34   22   23 1
  35   22   38 1
  36   22   39 1
  37   23   24 1
  38   23   40 1
  39   23   41 1
  40   24   25 1
  41   24   42 1
  42   24   43 1
  43   25   44 1
  44   25   45 1
  45   26   27 1
  46   26   28 1
  47   26   29 1

#	End of record

