#	Name: ASD00131012
#	Creating user name:	WinNT
#	Creation time:	15. 06. 2019 18:31

#	Modifying user name:	WinNT
#	Modification time:	15. 06. 2019 18:31

#	Program:	/corina/corina34_cracker 3.40 0067  02.08.2006

@<TRIPOS>MOLECULE
ASD00131012
  61   62    0    0    0
SMALL
NO_CHARGES


@<TRIPOS>ATOM
   1 N1             1.5197     1.3073    -1.2749 N.am    
   2 C2             1.6107    -0.0322    -1.2177 C.2     
   3 C3             1.3864    -0.7468     0.0382 C.2     
   4 C4             1.0744    -0.0169     1.1876 C.2     
   5 C5             0.9855     1.4431     1.0805 C.ar    
   6 C6             0.6755     2.2219     2.2014 C.ar    
   7 C7             0.5965     3.5803     2.0840 C.ar    
   8 C8             0.8213     4.1957     0.8603 C.ar    
   9 C9             1.1278     3.4486    -0.2561 C.ar    
  10 C10            1.2136     2.0620    -0.1613 C.ar    
  11 C11            1.4873    -2.2106     0.0902 C.2     
  12 O12            2.5799    -2.7459     0.0788 O.2     
  13 N13            0.3696    -2.9613     0.1507 N.am    
  14 O14            1.8834    -0.6596    -2.2256 O.2     
  15 C15            1.7575     1.9844    -2.5521 C.3     
  16 C16            3.1742     1.6725    -3.0386 C.3     
  17 C17            0.7432     1.4928    -3.5867 C.3     
  18 O18            0.8598    -0.6389     2.3656 O.3     
  19 N19           -0.5520    -7.0513    -0.2677 N.3     
  20 C20           -0.7241    -6.4710     1.0702 C.3     
  21 C21           -0.8104    -4.9471     0.9596 C.3     
  22 C22            0.4708    -4.4139     0.3125 C.3     
  23 C23            0.6519    -5.0701    -1.0590 C.3     
  24 C24            0.6958    -6.5905    -0.8898 C.3     
  25 C25           -0.6039    -8.5184    -0.2159 C.3     
  26 C26           -0.6723    -9.0769    -1.6387 C.3     
  27 C27           -0.7263   -10.6050    -1.5848 C.3     
  28 C28           -0.7946   -11.1634    -3.0076 C.3     
  29 H29            0.4990     1.7499     3.1566 H       
  30 H30            0.3568     4.1801     2.9495 H       
  31 H31            0.7550     5.2709     0.7824 H       
  32 H32            1.3005     3.9377    -1.2035 H       
  33 H33           -0.5017    -2.5399     0.0872 H       
  34 H34            1.6479     3.0606    -2.4187 H       
  35 H35            3.3512     2.1763    -3.9889 H       
  36 H36            3.8968     2.0228    -2.3016 H       
  37 H37            3.2838     0.5963    -3.1720 H       
  38 H38           -0.2661     1.7150    -3.2401 H       
  39 H39            0.9202     1.9966    -4.5369 H       
  40 H40            0.8528     0.4166    -3.7201 H       
  41 H41            0.8665    -1.6041     2.3077 H       
  42 H42           -1.6409    -6.8552     1.5175 H       
  43 H43            0.1263    -6.7422     1.6958 H       
  44 H44           -1.6688    -4.6749     0.3454 H       
  45 H45           -0.9225    -4.5158     1.9543 H       
  46 H46            1.3251    -4.6511     0.9466 H       
  47 H47           -0.1835    -4.7998    -1.7049 H       
  48 H48            1.5846    -4.7266    -1.5065 H       
  49 H49            1.5396    -6.8610    -0.2551 H       
  50 H50            0.8103    -7.0614    -1.8662 H       
  51 H51            0.2900    -8.8963     0.2802 H       
  52 H52           -1.4877    -8.8313     0.3400 H       
  53 H53           -1.5662    -8.6990    -2.1348 H       
  54 H54            0.2116    -8.7640    -2.1947 H       
  55 H55            0.1676   -10.9829    -1.0887 H       
  56 H56           -1.6101   -10.9179    -1.0288 H       
  57 H57           -1.6886   -10.7855    -3.5037 H       
  58 H58            0.0892   -10.8505    -3.5635 H       
  59 H59           -0.8331   -12.2521    -2.9692 H       
  60 Cl60           8.8968    10.2709     8.1566 Cl      
  61 H61            8.8968    11.6409     8.1566 H       
@<TRIPOS>BOND
   1    1    2 am
   2    1   10 1
   3    1   15 1
   4    2    3 1
   5    2   14 2
   6    3    4 2
   7    3   11 1
   8    4    5 1
   9    4   18 1
  10    5    6 ar
  11    5   10 ar
  12    6    7 ar
  13    6   29 1
  14    7    8 ar
  15    7   30 1
  16    8    9 ar
  17    8   31 1
  18    9   10 ar
  19    9   32 1
  20   11   12 2
  21   11   13 am
  22   13   22 1
  23   13   33 1
  24   15   16 1
  25   15   17 1
  26   15   34 1
  27   16   35 1
  28   16   36 1
  29   16   37 1
  30   17   38 1
  31   17   39 1
  32   17   40 1
  33   18   41 1
  34   19   20 1
  35   19   24 1
  36   19   25 1
  37   20   21 1
  38   20   42 1
  39   20   43 1
  40   21   22 1
  41   21   44 1
  42   21   45 1
  43   22   23 1
  44   22   46 1
  45   23   24 1
  46   23   47 1
  47   23   48 1
  48   24   49 1
  49   24   50 1
  50   25   26 1
  51   25   51 1
  52   25   52 1
  53   26   27 1
  54   26   53 1
  55   26   54 1
  56   27   28 1
  57   27   55 1
  58   27   56 1
  59   28   57 1
  60   28   58 1
  61   28   59 1
  62   60   61 1

#	End of record

