#	Name: ASD01230257
#	Creating user name:	WinNT
#	Creation time:	15. 06. 2019 19:12

#	Modifying user name:	WinNT
#	Modification time:	15. 06. 2019 19:12

#	Program:	/corina/corina34_cracker 3.40 0067  02.08.2006

@<TRIPOS>MOLECULE
ASD01230257
  46   49    0    0    0
SMALL
NO_CHARGES


@<TRIPOS>ATOM
   1 S1            -0.0204     1.6504     0.0111 S.o2    
   2 N2             0.0021    -0.0041     0.0020 N.am    
   3 C3             1.0239    -0.6879    -0.4548 C.2     
   4 N4             2.1701    -0.1527    -0.9678 N.pl3   
   5 C5             2.3936     1.2844    -1.1465 C.3     
   6 C6             1.7501     2.0751    -0.0035 C.3     
   7 C7             0.8941    -2.1592    -0.3968 C.2     
   8 C8             1.9447    -2.9436    -0.8207 C.2     
   9 C9             3.1096    -2.3219    -1.2945 C.2     
  10 C10            3.1963    -0.9806    -1.3563 C.2     
  11 F11            4.1555    -3.0781    -1.6937 F       
  12 C12           -0.7318    -2.6162     1.4410 C.ar    
  13 C13           -0.3494    -2.7826     0.1110 C.ar    
  14 C14           -1.1588    -3.5474    -0.7378 C.ar    
  15 C15           -2.3094    -4.1084    -0.2180 C.ar    
  16 C16           -2.6238    -3.8973     1.1192 C.ar    
  17 N17           -1.8383    -3.1689     1.8958 N.ar    
  18 O18           -3.7524    -4.4456     1.6356 O.3     
  19 C19           -4.0230    -4.1940     3.0160 C.3     
  20 C20           -5.5355    -4.1908     3.2469 C.3     
  21 C21           -5.8252    -3.9214     4.7249 C.3     
  22 C22           -5.1813    -5.0158     5.5785 C.3     
  23 C23           -3.6689    -5.0190     5.3476 C.3     
  24 C24           -3.3791    -5.2884     3.8697 C.3     
  25 O25           -0.6346     2.0064    -1.2198 O.2     
  26 O26           -0.6110     1.9931     1.2573 O.2     
  27 H27            3.4653     1.4824    -1.1619 H       
  28 H28            1.9565     1.6012    -2.0934 H       
  29 H29            1.8742     3.1443    -0.1756 H       
  30 H30            2.2071     1.7951     0.9456 H       
  31 H31            1.8725    -4.0207    -0.7884 H       
  32 H32            4.1090    -0.5367    -1.7257 H       
  33 H33           -0.1132    -2.0322     2.1063 H       
  34 H34           -0.8904    -3.6949    -1.7735 H       
  35 H35           -2.9575    -4.7040    -0.8438 H       
  36 H36           -3.6106    -3.2248     3.2963 H       
  37 H37           -5.9942    -3.4111     2.6387 H       
  38 H38           -5.9479    -5.1600     2.9666 H       
  39 H39           -5.4128    -2.9521     5.0052 H       
  40 H40           -6.9027    -3.9191     4.8893 H       
  41 H41           -5.3877    -4.8239     6.6314 H       
  42 H42           -5.5938    -5.9850     5.2982 H       
  43 H43           -3.2565    -4.0498     5.6279 H       
  44 H44           -3.2102    -5.7987     5.9558 H       
  45 H45           -3.7916    -6.2576     3.5893 H       
  46 H46           -2.3016    -5.2907     3.7052 H       
@<TRIPOS>BOND
   1    1    2 am
   2    1    6 1
   3    1   25 2
   4    1   26 2
   5    2    3 2
   6    3    4 1
   7    3    7 1
   8    4    5 1
   9    4   10 1
  10    5    6 1
  11    5   27 1
  12    5   28 1
  13    6   29 1
  14    6   30 1
  15    7    8 2
  16    7   13 1
  17    8    9 1
  18    8   31 1
  19    9   10 2
  20    9   11 1
  21   10   32 1
  22   12   13 ar
  23   12   17 ar
  24   12   33 1
  25   13   14 ar
  26   14   15 ar
  27   14   34 1
  28   15   16 ar
  29   15   35 1
  30   16   17 ar
  31   16   18 1
  32   18   19 1
  33   19   20 1
  34   19   24 1
  35   19   36 1
  36   20   21 1
  37   20   37 1
  38   20   38 1
  39   21   22 1
  40   21   39 1
  41   21   40 1
  42   22   23 1
  43   22   41 1
  44   22   42 1
  45   23   24 1
  46   23   43 1
  47   23   44 1
  48   24   45 1
  49   24   46 1

#	End of record

