#	Name: ASD00172014
#	Creating user name:	WinNT
#	Creation time:	15. 06. 2019 18:33

#	Modifying user name:	WinNT
#	Modification time:	15. 06. 2019 18:33

#	Program:	/corina/corina34_cracker 3.40 0067  02.08.2006

@<TRIPOS>MOLECULE
ASD00172014
  42   44    0    0    0
SMALL
NO_CHARGES


@<TRIPOS>ATOM
   1 C1            -0.0471     1.3513    -0.0306 C.2     
   2 C2            -0.0044     0.0176    -0.0500 C.2     
   3 C3            -1.3308    -0.5804     0.0103 C.2     
   4 C4            -2.3397     0.3439     0.0810 C.2     
   5 S5            -1.7074     1.9234     0.0675 S.3     
   6 N6            -3.6834     0.0364     0.1482 N.pl3   
   7 C7            -1.5630    -2.0243    -0.0040 C.2     
   8 C8            -1.5797    -2.7834     1.2656 C.ar    
   9 O9            -1.7425    -2.6016    -1.0610 O.2     
  10 C10           -1.2633    -2.1472     2.4667 C.ar    
  11 C11           -1.2807    -2.8610     3.6473 C.ar    
  12 C12           -1.6109    -4.2045     3.6421 C.ar    
  13 C13           -1.9256    -4.8413     2.4545 C.ar    
  14 C14           -1.9175    -4.1378     1.2680 C.ar    
  15 C15            1.1610     2.2631    -0.0908 C.3     
  16 C16            2.2217     1.7927     0.9030 C.3     
  17 C17            3.1524     0.7997     0.2124 C.3     
  18 C18            2.3705    -0.0134    -0.8170 C.3     
  19 C19            1.2710    -0.8050    -0.1154 C.3     
  20 C20            3.0307     2.9949     1.3940 C.3     
  21 C21           -2.2835    -6.3052     2.4582 C.3     
  22 F22           -2.2285    -6.7954     3.7674 F       
  23 F23           -3.5774    -6.4702     1.9525 F       
  24 F24           -1.3769    -7.0090     1.6583 F       
  25 H25           -3.9743    -0.8857     0.0707 H       
  26 H26           -4.3368     0.7423     0.2730 H       
  27 H27           -1.0051    -1.0986     2.4720 H       
  28 H28           -1.0358    -2.3700     4.5775 H       
  29 H29           -1.6227    -4.7588     4.5689 H       
  30 H30           -2.1633    -4.6360     0.3418 H       
  31 H31            1.5767     2.2465    -1.0983 H       
  32 H32            0.8589     3.2806     0.1572 H       
  33 H33            1.7370     1.3084     1.7507 H       
  34 H34            3.9543     1.3425    -0.2881 H       
  35 H35            3.5806     0.1273     0.9557 H       
  36 H36            1.9229     0.6603    -1.5476 H       
  37 H37            3.0460    -0.7019    -1.3247 H       
  38 H38            1.5934    -1.0531     0.8958 H       
  39 H39            1.0796    -1.7251    -0.6676 H       
  40 H40            2.3647     3.7056     1.8833 H       
  41 H41            3.7872     2.6585     2.1030 H       
  42 H42            3.5165     3.4769     0.5457 H       
@<TRIPOS>BOND
   1    1    2 2
   2    1   15 1
   3    1    5 1
   4    2    3 1
   5    2   19 1
   6    3    4 2
   7    3    7 1
   8    4    5 1
   9    4    6 1
  10    6   25 1
  11    6   26 1
  12    7    8 1
  13    7    9 2
  14    8   10 ar
  15    8   14 ar
  16   10   11 ar
  17   10   27 1
  18   11   12 ar
  19   11   28 1
  20   12   13 ar
  21   12   29 1
  22   13   14 ar
  23   13   21 1
  24   14   30 1
  25   15   16 1
  26   15   31 1
  27   15   32 1
  28   16   17 1
  29   16   20 1
  30   16   33 1
  31   17   18 1
  32   17   34 1
  33   17   35 1
  34   18   19 1
  35   18   36 1
  36   18   37 1
  37   19   38 1
  38   19   39 1
  39   20   40 1
  40   20   41 1
  41   20   42 1
  42   21   22 1
  43   21   23 1
  44   21   24 1

#	End of record

