#	Name: ASD01916366
#	Creating user name:	WinNT
#	Creation time:	15. 06. 2019 20:07

#	Modifying user name:	WinNT
#	Modification time:	15. 06. 2019 20:07

#	Program:	/corina/corina34_cracker 3.40 0067  02.08.2006

@<TRIPOS>MOLECULE
ASD01916366
  46   48    0    0    0
SMALL
NO_CHARGES


@<TRIPOS>ATOM
   1 C1            -0.0187     1.5301     0.0105 C.3     
   2 C2             0.0021    -0.0041     0.0020 C.3     
   3 C3             0.6527    -0.5117     1.2867 C.3     
   4 C4             2.0132     0.0951     1.4821 C.ar    
   5 C5             2.3745     1.2990     0.8670 C.ar    
   6 C6             1.4208     2.0041    -0.0007 C.2     
   7 N7             2.9007    -0.5114     2.2514 N.ar    
   8 C8             4.1066     0.0090     2.4389 C.ar    
   9 N9             4.4821     1.1500     1.8740 N.ar    
  10 C10            3.6564     1.8187     1.0898 C.ar    
  11 N11            5.0003    -0.6579     3.2488 N.pl3   
  12 C12            6.3386    -0.1057     3.4732 C.3     
  13 O13            1.7727     2.9303    -0.7005 O.2     
  14 C14           -1.4308    -0.5330    -0.0874 C.3     
  15 C15            6.8858    -0.6205     4.8060 C.3     
  16 C16            8.2835    -0.0439     5.0404 C.3     
  17 C17            9.2120    -0.4800     3.9053 C.3     
  18 C18            8.6648     0.0347     2.5724 C.3     
  19 C19            7.2672    -0.5419     2.3381 C.3     
  20 Cl20          10.8591     0.1995     4.1814 Cl      
  21 C21           -2.0406    -0.1290    -1.4312 C.3     
  22 C22           -3.4735    -0.6580    -1.5206 C.3     
  23 H23           -0.5368     1.8983    -0.8751 H       
  24 H24           -0.5197     1.8887     0.9096 H       
  25 H25            0.5731    -0.3549    -0.8576 H       
  26 H26            0.0199    -0.2510     2.1350 H       
  27 H27            0.7493    -1.5962     1.2340 H       
  28 H28            3.9627     2.7468     0.6302 H       
  29 H29            4.7432    -1.4929     3.6703 H       
  30 H30            6.2830     0.9825     3.4993 H       
  31 H31           -1.4228    -1.6198    -0.0040 H       
  32 H32           -2.0252    -0.1108     0.7229 H       
  33 H33            6.2243    -0.3098     5.6147 H       
  34 H34            6.9414    -1.7088     4.7800 H       
  35 H35            8.2279     1.0444     5.0665 H       
  36 H36            8.6733    -0.4106     5.9899 H       
  37 H37            9.2677    -1.5683     3.8792 H       
  38 H38            8.6092     1.1230     2.5985 H       
  39 H39            9.3263    -0.2760     1.7638 H       
  40 H40            7.3228    -1.6302     2.3120 H       
  41 H41            6.8773    -0.1752     1.3885 H       
  42 H42           -2.0486     0.9577    -1.5146 H       
  43 H43           -1.4463    -0.5512    -2.2415 H       
  44 H44           -3.9080    -0.3702    -2.4780 H       
  45 H45           -3.4655    -1.7447    -1.4373 H       
  46 H46           -4.0679    -0.2358    -0.7103 H       
@<TRIPOS>BOND
   1    1    2 1
   2    1    6 1
   3    1   23 1
   4    1   24 1
   5    2    3 1
   6    2   14 1
   7    2   25 1
   8    3    4 1
   9    3   26 1
  10    3   27 1
  11    4    5 ar
  12    4    7 ar
  13    5    6 1
  14    5   10 ar
  15    6   13 2
  16    7    8 ar
  17    8    9 ar
  18    8   11 1
  19    9   10 ar
  20   10   28 1
  21   11   12 1
  22   11   29 1
  23   12   15 1
  24   12   19 1
  25   12   30 1
  26   14   21 1
  27   14   31 1
  28   14   32 1
  29   15   16 1
  30   15   33 1
  31   15   34 1
  32   16   17 1
  33   16   35 1
  34   16   36 1
  35   17   18 1
  36   17   20 1
  37   17   37 1
  38   18   19 1
  39   18   38 1
  40   18   39 1
  41   19   40 1
  42   19   41 1
  43   21   22 1
  44   21   42 1
  45   21   43 1
  46   22   44 1
  47   22   45 1
  48   22   46 1

#	End of record

