#	Name: ASD01850066
#	Creating user name:	WinNT
#	Creation time:	15. 06. 2019 19:38

#	Modifying user name:	WinNT
#	Modification time:	15. 06. 2019 19:38

#	Program:	/corina/corina34_cracker 3.40 0067  02.08.2006

@<TRIPOS>MOLECULE
ASD01850066
  59   62    0    0    0
SMALL
NO_CHARGES


@<TRIPOS>ATOM
   1 C1            -7.5851     4.7990    -0.6396 C.ar    
   2 C2            -8.1073     5.5232    -1.6946 C.ar    
   3 C3            -7.3588     5.7110    -2.8417 C.ar    
   4 C4            -6.0881     5.1749    -2.9333 C.ar    
   5 C5            -5.5654     4.4513    -1.8776 C.ar    
   6 C6            -6.3120     4.2672    -0.7291 C.ar    
   7 C7            -2.9925     4.8018     0.0603 C.3     
   8 N8            -3.2137     4.7961    -1.3879 N.am    
   9 C9            -3.8548     5.8896     0.7037 C.3     
  10 C10           -2.5282     5.6463    -2.1776 C.2     
  11 C11           -2.8375     5.7219    -3.6506 C.3     
  12 O12           -1.6623     6.3504    -1.7029 O.2     
  13 C13           -2.3124     7.0442    -4.2146 C.3     
  14 C14           -2.1636     4.5535    -4.3737 C.3     
  15 C15           -2.5085     4.6139    -5.8651 C.3     
  16 N16           -2.1384     5.9382    -6.3828 N.am    
  17 C17           -2.6590     7.1328    -5.7041 C.3     
  18 S18           -1.1526     6.0817    -7.7056 S.o2    
  19 C19           -2.1908     6.1102    -9.1290 C.ar    
  20 C20           -2.6597     7.3022    -9.5997 C.ar    
  21 C21           -3.4838     7.3237   -10.7306 C.ar    
  22 C22           -3.8202     6.1153   -11.3705 C.ar    
  23 C23           -3.3261     4.9141   -10.8674 C.ar    
  24 C24           -2.5195     4.9192    -9.7651 C.ar    
  25 C25           -4.1444     8.3845   -11.4841 C.2     
  26 N26           -4.7975     7.8287   -12.4643 N.2     
  27 N27           -4.6252     6.4411   -12.4306 N.pl3   
  28 O28           -0.5521     7.3668    -7.6211 O.2     
  29 O29           -0.4029     4.8768    -7.7799 O.2     
  30 C30           -4.1802     3.8663    -1.9776 C.3     
  31 C31           -8.4010     4.5942     0.6108 C.3     
  32 H32           -9.1002     5.9421    -1.6231 H       
  33 H33           -7.7671     6.2763    -3.6664 H       
  34 H34           -5.5037     5.3210    -3.8297 H       
  35 H35           -5.9037     3.7019     0.0956 H       
  36 H36           -3.2650     3.8305     0.4733 H       
  37 H37           -1.9411     5.0022     0.2665 H       
  38 H38           -3.7582     5.8359     1.7881 H       
  39 H39           -3.5230     6.8685     0.3574 H       
  40 H40           -4.8976     5.7395     0.4240 H       
  41 H41           -3.9160     5.6667    -3.7985 H       
  42 H42           -2.7754     7.8757    -3.6832 H       
  43 H43           -1.2306     7.0890    -4.0895 H       
  44 H44           -1.0831     4.6218    -4.2471 H       
  45 H45           -2.5205     3.6123    -3.9556 H       
  46 H46           -1.9527     3.8440    -6.4002 H       
  47 H47           -3.5785     4.4551    -5.9994 H       
  48 H48           -3.7413     7.1794    -5.8253 H       
  49 H49           -2.2025     8.0249    -6.1331 H       
  50 H50           -2.3966     8.2238    -9.1020 H       
  51 H51           -3.5777     3.9811   -11.3497 H       
  52 H52           -2.1385     3.9854    -9.3788 H       
  53 H53           -4.0997     9.4417   -11.2676 H       
  54 H54           -5.0131     5.8105   -13.0573 H       
  55 H55           -4.1464     2.9183    -1.4408 H       
  56 H56           -3.9310     3.6996    -3.0255 H       
  57 H57           -8.9906     3.6824     0.5147 H       
  58 H58           -7.7349     4.5074     1.4692 H       
  59 H59           -9.0678     5.4447     0.7529 H       
@<TRIPOS>BOND
   1    1   31 1
   2    1    2 ar
   3    1    6 ar
   4    2    3 ar
   5    2   32 1
   6    3    4 ar
   7    3   33 1
   8    4    5 ar
   9    4   34 1
  10    5    6 ar
  11    5   30 1
  12    6   35 1
  13    7    8 1
  14    7    9 1
  15    7   36 1
  16    7   37 1
  17    8   10 am
  18    8   30 1
  19    9   38 1
  20    9   39 1
  21    9   40 1
  22   10   11 1
  23   10   12 2
  24   11   13 1
  25   11   14 1
  26   11   41 1
  27   13   17 1
  28   13   42 1
  29   13   43 1
  30   14   15 1
  31   14   44 1
  32   14   45 1
  33   15   16 1
  34   15   46 1
  35   15   47 1
  36   16   17 1
  37   16   18 am
  38   17   48 1
  39   17   49 1
  40   18   19 1
  41   18   28 2
  42   18   29 2
  43   19   20 ar
  44   19   24 ar
  45   20   21 ar
  46   20   50 1
  47   21   22 ar
  48   21   25 1
  49   22   23 ar
  50   22   27 1
  51   23   24 ar
  52   23   51 1
  53   24   52 1
  54   25   26 2
  55   25   53 1
  56   26   27 1
  57   27   54 1
  58   30   55 1
  59   30   56 1
  60   31   57 1
  61   31   58 1
  62   31   59 1

#	End of record

