#	Name: ASD00451004
#	Creating user name:	WinNT
#	Creation time:	15. 06. 2019 18:36

#	Modifying user name:	WinNT
#	Modification time:	15. 06. 2019 18:36

#	Program:	/corina/corina34_cracker 3.40 0067  02.08.2006

@<TRIPOS>MOLECULE
ASD00451004
  48   51    0    0    0
SMALL
NO_CHARGES


@<TRIPOS>ATOM
   1 C1             0.0380     1.5391    -0.0842 C.ar    
   2 C2             0.1182     0.1537    -0.1221 C.ar    
   3 N3             1.2087     2.3090    -0.0782 N.am    
   4 C4            -1.2030     2.1617    -0.0581 C.ar    
   5 C5            -1.0359    -0.6047    -0.1280 C.ar    
   6 C6             2.3069     1.8606     0.5615 C.2     
   7 C7            -2.3562     1.4028    -0.0698 C.ar    
   8 C8            -2.2753     0.0177    -0.0960 C.ar    
   9 O9             2.2540     0.8369     1.2156 O.2     
  10 N10            3.4638     2.5468     0.4763 N.am    
  11 O11           -3.4112    -0.7293    -0.1080 O.3     
  12 C12            4.5695     2.1522     1.2388 C.ar    
  13 C13           -3.2867    -2.0800    -0.0444 C.ar    
  14 C14            5.8546     2.4496     0.8058 C.ar    
  15 C15            4.3826     1.4674     2.4325 C.ar    
  16 C16           -3.0695    -2.7226     1.1719 C.ar    
  17 C17           -3.3784    -2.8625    -1.1933 C.ar    
  18 C18            6.9440     2.0590     1.5600 C.ar    
  19 C19            5.4749     1.0792     3.1828 C.ar    
  20 N20           -2.9325    -2.2765     2.4848 N.am    
  21 C21           -2.9466    -4.1120     1.1984 C.ar    
  22 C22           -3.2465    -4.2326    -1.0885 C.ar    
  23 C23            6.7553     1.3716     2.7458 C.ar    
  24 C24           -2.7349    -3.3500     3.2739 C.2     
  25 N25           -2.7337    -4.4679     2.5243 N.am    
  26 N26           -3.0356    -4.8126     0.0778 N.ar    
  27 Cl27           8.1265     0.8816     3.6910 Cl      
  28 O28           -2.5745    -3.3141     4.4796 O.2     
  29 H29            1.2287     3.1648    -0.5344 H       
  30 H30            3.5302     3.3141    -0.1133 H       
  31 H31           -2.9723    -1.3532     2.7794 H       
  32 H32           -2.6108    -5.3714     2.8553 H       
  33 C33           -3.7030     2.0783    -0.0414 C.3     
  34 C34            8.3392     2.3815     1.0906 C.3     
  35 F35            8.2744     3.0746    -0.1229 F       
  36 F36            8.9813     3.1751     2.0472 F       
  37 F37            9.0572     1.1942     0.9117 F       
  38 H38            1.0831    -0.3310    -0.1473 H       
  39 H39           -1.2660     3.2395    -0.0282 H       
  40 H40           -0.9736    -1.6825    -0.1578 H       
  41 H41            6.0025     2.9856    -0.1201 H       
  42 H42            3.3837     1.2391     2.7740 H       
  43 H43           -3.5511    -2.4025    -2.1551 H       
  44 H44            5.3301     0.5467     4.1111 H       
  45 H45           -3.3176    -4.8413    -1.9778 H       
  46 H46           -4.0355     2.2688    -1.0618 H       
  47 H47           -4.4231     1.4322     0.4607 H       
  48 H48           -3.6246     3.0225     0.4974 H       
@<TRIPOS>BOND
   1    1    2 ar
   2    1    3 1
   3    1    4 ar
   4    2    5 ar
   5    2   38 1
   6    3   29 1
   7    3    6 am
   8    4    7 ar
   9    4   39 1
  10    5    8 ar
  11    5   40 1
  12    6    9 2
  13    6   10 am
  14    7   33 1
  15    7    8 ar
  16    8   11 1
  17   10   12 1
  18   10   30 1
  19   11   13 1
  20   12   14 ar
  21   12   15 ar
  22   13   16 ar
  23   13   17 ar
  24   14   18 ar
  25   14   41 1
  26   15   19 ar
  27   15   42 1
  28   16   20 1
  29   16   21 ar
  30   17   22 ar
  31   17   43 1
  32   18   23 ar
  33   18   34 1
  34   19   23 ar
  35   19   44 1
  36   20   31 1
  37   20   24 am
  38   21   26 ar
  39   21   25 1
  40   22   26 ar
  41   22   45 1
  42   23   27 1
  43   24   25 am
  44   24   28 2
  45   25   32 1
  46   33   46 1
  47   33   47 1
  48   33   48 1
  49   34   35 1
  50   34   36 1
  51   34   37 1

#	End of record

