#	Name: ASD01410822
#	Creating user name:	WinNT
#	Creation time:	15. 06. 2019 19:18

#	Modifying user name:	WinNT
#	Modification time:	15. 06. 2019 19:18

#	Program:	/corina/corina34_cracker 3.40 0067  02.08.2006

@<TRIPOS>MOLECULE
ASD01410822
  51   52    0    0    0
SMALL
NO_CHARGES


@<TRIPOS>ATOM
   1 C1            -0.1210     0.3469    -1.2245 C.ar    
   2 C2            -0.1212    -1.0429    -1.1342 C.ar    
   3 C3            -1.2324    -1.7078    -0.7048 C.ar    
   4 C4            -2.3855    -0.9939    -0.3504 C.ar    
   5 C5            -2.3898     0.4110    -0.4396 C.ar    
   6 C6            -1.2504     1.0725    -0.8729 C.ar    
   7 O7             0.9913     0.9953    -1.6532 O.3     
   8 C8             2.1213     0.1895    -1.9936 C.3     
   9 C9             3.2704     1.0899    -2.4515 C.3     
  10 O10            2.8598     1.8419    -3.5951 O.3     
  11 O11            3.6244     1.9847    -1.3951 O.3     
  12 C12            4.9753     2.4471    -1.4532 C.3     
  13 C13            3.8999     2.6309    -4.1761 C.3     
  14 Cl14          -1.2413     2.8047    -0.9873 Cl      
  15 N15           -3.5277     1.1314    -0.0909 N.am    
  16 C16           -3.5796    -1.7059     0.1099 C.2     
  17 O17           -4.3028    -2.2594    -0.6921 O.2     
  18 O18           -4.7836    -0.0303    -1.5081 O.2     
  19 C19           -4.6967     0.8889    -0.7163 C.2     
  20 C20           -3.9104    -1.7511     1.5794 C.3     
  21 C21           -5.8685     1.7367    -0.4411 C.2     
  22 C22           -7.0709     1.5505    -1.0314 C.2     
  23 N23           -5.8450     2.7581     0.4193 N.2     
  24 C24           -6.9497     3.4040     0.5508 C.2     
  25 S25           -8.1599     2.7328    -0.4497 S.3     
  26 C26           -7.1492     4.5863     1.4638 C.3     
  27 C27           -7.5637     5.8050     0.6368 C.3     
  28 C28           -8.2444     4.2648     2.4827 C.3     
  29 H29            0.7643    -1.5981    -1.4063 H       
  30 H30           -1.2238    -2.7857    -0.6381 H       
  31 H31            2.4346    -0.3841    -1.1212 H       
  32 H32            1.8513    -0.4931    -2.7994 H       
  33 H33            4.1323     0.4753    -2.7111 H       
  34 H34            5.6527     1.6151    -1.2608 H       
  35 H35            5.1764     2.8582    -2.4424 H       
  36 H36            5.1272     3.2208    -0.7005 H       
  37 H37            4.1258     3.4729    -3.5218 H       
  38 H38            4.7930     2.0189    -4.3020 H       
  39 H39            3.5744     3.0028    -5.1476 H       
  40 H40           -3.4798     1.8081     0.6024 H       
  41 H41           -3.2039    -1.1300     2.1301 H       
  42 H42           -4.9220    -1.3767     1.7359 H       
  43 H43           -3.8444    -2.7792     1.9353 H       
  44 H44           -7.3046     0.7812    -1.7525 H       
  45 H45           -6.2179     4.8023     1.9874 H       
  46 H46           -8.4950     5.5891     0.1132 H       
  47 H47           -7.7080     6.6601     1.2972 H       
  48 H48           -6.7835     6.0340    -0.0890 H       
  49 H49           -7.9490     3.3966     3.0718 H       
  50 H50           -8.3886     5.1200     3.1430 H       
  51 H51           -9.1757     4.0489     1.9591 H       
@<TRIPOS>BOND
   1    1    2 ar
   2    1    7 1
   3    1    6 ar
   4    2    3 ar
   5    2   29 1
   6    3    4 ar
   7    3   30 1
   8    4    5 ar
   9    4   16 1
  10    5    6 ar
  11    5   15 1
  12    6   14 1
  13    7    8 1
  14    8    9 1
  15    8   31 1
  16    8   32 1
  17    9   10 1
  18    9   11 1
  19    9   33 1
  20   10   13 1
  21   11   12 1
  22   12   34 1
  23   12   35 1
  24   12   36 1
  25   13   37 1
  26   13   38 1
  27   13   39 1
  28   15   19 am
  29   15   40 1
  30   16   17 2
  31   16   20 1
  32   18   19 2
  33   19   21 1
  34   20   41 1
  35   20   42 1
  36   20   43 1
  37   21   22 2
  38   21   23 1
  39   22   25 1
  40   22   44 1
  41   23   24 2
  42   24   25 1
  43   24   26 1
  44   26   27 1
  45   26   28 1
  46   26   45 1
  47   27   46 1
  48   27   47 1
  49   27   48 1
  50   28   49 1
  51   28   50 1
  52   28   51 1

#	End of record

