#	Name: ASD00845113
#	Creating user name:	WinNT
#	Creation time:	15. 06. 2019 18:51

#	Modifying user name:	WinNT
#	Modification time:	15. 06. 2019 18:51

#	Program:	/corina/corina34_cracker 3.40 0067  02.08.2006

@<TRIPOS>MOLECULE
ASD00845113
  83   88    0    0    0
SMALL
NO_CHARGES


@<TRIPOS>ATOM
   1 C1            -0.0167     1.3829     0.0096 C.ar    
   2 C2             0.0021    -0.0041     0.0020 C.ar    
   3 C3             1.2143    -0.6791    -0.0132 C.ar    
   4 C4             2.3989     0.0312    -0.0207 C.ar    
   5 C5             2.3774     1.4139    -0.0126 C.ar    
   6 C6             1.1710     2.0888     0.0021 C.ar    
   7 C7             1.2384    -2.1858    -0.0210 C.3     
   8 C8             0.4954    -2.7222    -1.2260 C.2     
   9 O9             2.6066    -2.6718    -0.0089 O.3     
  10 C10            3.3986    -2.2936    -1.0299 C.2     
  11 N11            4.6795    -2.7098    -1.0791 N.am    
  12 O12            2.9584    -1.5772    -1.9071 O.2     
  13 C13            5.5617    -2.3085    -2.1854 C.3     
  14 C14            6.8552    -1.7378    -1.5941 C.3     
  15 N15            7.4344    -2.7122    -0.6599 N.3     
  16 C16            6.5387    -2.9566     0.4785 C.3     
  17 C17            5.2340    -3.5723    -0.0246 C.3     
  18 C18            8.7611    -2.2783    -0.2021 C.3     
  19 C19            9.2789    -3.2509     0.8612 C.3     
  20 C20           10.6860    -2.8285     1.2899 C.3     
  21 N21           11.5766    -2.8321     0.1223 N.3     
  22 C22           11.1258    -1.8710    -0.8923 C.3     
  23 C23            9.7318    -2.2648    -1.3862 C.3     
  24 C24           12.9658    -2.5661     0.5190 C.3     
  25 O25            0.7747    -2.5266    -2.3899 O.2     
  26 N26           -0.5308    -3.4561    -0.7646 N.am    
  27 C27            0.4677    -2.7343     1.1584 C.ar    
  28 C28           -0.5778    -3.4853     0.6264 C.ar    
  29 C29            0.6314    -2.6120     2.5149 C.ar    
  30 C30           -0.2617    -3.2488     3.3840 C.ar    
  31 C31           -1.3150    -4.0053     2.8564 C.ar    
  32 C32           -1.4681    -4.1216     1.4914 C.ar    
  33 F33           -2.1826    -4.6239     3.6870 F       
  34 C34           -0.9796    -5.8517    -2.0429 C.ar    
  35 C35           -1.3044    -6.8934    -1.1943 C.ar    
  36 C36           -0.1592    -6.0776    -3.1323 C.ar    
  37 C37            0.3364    -7.3454    -3.3731 C.ar    
  38 C38            0.0120    -8.3871    -2.5243 C.ar    
  39 C39           -0.8084    -8.1611    -1.4349 C.ar    
  40 H40            0.3993    -9.3776    -2.7124 H       
  41 H41           -1.9454    -6.7169    -0.3432 H       
  42 S42           -1.6173    -4.2372    -1.7401 S.o2    
  43 O43           -2.7976    -4.4103    -0.9681 O.2     
  44 O44           -1.5974    -3.5574    -2.9878 O.2     
  45 O45           -1.1648    -0.7006     0.0099 O.3     
  46 C46           -2.3744     0.0601     0.0260 C.3     
  47 C47           -3.5740    -0.8895     0.0328 C.3     
  48 F48           -3.5417    -1.6899    -1.1142 F       
  49 F49           -3.5190    -1.7022     1.1702 F       
  50 C50           -0.0993    -3.1278     4.8016 C.1     
  51 N51            0.0296    -3.0319     5.9262 N.1     
  52 H52           -0.9590     1.9106     0.0170 H       
  53 H53            3.3426    -0.4937    -0.0325 H       
  54 H54            3.3047     1.9675    -0.0178 H       
  55 H55            1.1569     3.1687     0.0084 H       
  56 H56            5.7931    -3.1766    -2.8026 H       
  57 H57            5.0682    -1.5472    -2.7896 H       
  58 H58            7.5647    -1.5374    -2.3969 H       
  59 H59            6.6348    -0.8116    -1.0633 H       
  60 H60            7.0187    -3.6402     1.1788 H       
  61 H61            6.3227    -2.0135     0.9804 H       
  62 H62            4.5240    -3.6492     0.7988 H       
  63 H63            5.4310    -4.5624    -0.4357 H       
  64 H64            8.6902    -1.2773     0.2235 H       
  65 H65            8.6145    -3.2330     1.7251 H       
  66 H66            9.3117    -4.2587     0.4474 H       
  67 H67           10.6502    -1.8260     1.7163 H       
  68 H68           11.0632    -3.5273     2.0366 H       
  69 H69           11.0879    -0.8730    -0.4557 H       
  70 H70           11.8224    -1.8743    -1.7306 H       
  71 H71            9.7718    -3.2571    -1.8354 H       
  72 H72            9.3910    -1.5424    -2.1279 H       
  73 H73           13.2987    -3.3361     1.2149 H       
  74 H74           13.6039    -2.5744    -0.3646 H       
  75 H75           13.0254    -1.5903     1.0011 H       
  76 H76            1.4477    -2.0262     2.9111 H       
  77 H77           -2.2823    -4.7066     1.0898 H       
  78 H78            0.0943    -5.2638    -3.7955 H       
  79 H79            0.9769    -7.5221    -4.2246 H       
  80 H80           -1.0621    -8.9750    -0.7719 H       
  81 H81           -2.3995     0.6837     0.9196 H       
  82 H82           -2.4172     0.6932    -0.8603 H       
  83 H83           -4.4966    -0.3093     0.0451 H       
@<TRIPOS>BOND
   1    1    2 ar
   2    1    6 ar
   3    1   52 1
   4    2    3 ar
   5    2   45 1
   6    3    4 ar
   7    3    7 1
   8    4    5 ar
   9    4   53 1
  10    5    6 ar
  11    5   54 1
  12    6   55 1
  13    7    8 1
  14    7    9 1
  15    7   27 1
  16    8   25 2
  17    8   26 am
  18    9   10 1
  19   10   11 am
  20   10   12 2
  21   11   13 1
  22   11   17 1
  23   13   14 1
  24   13   56 1
  25   13   57 1
  26   14   15 1
  27   14   58 1
  28   14   59 1
  29   15   16 1
  30   15   18 1
  31   16   17 1
  32   16   60 1
  33   16   61 1
  34   17   62 1
  35   17   63 1
  36   18   19 1
  37   18   23 1
  38   18   64 1
  39   19   20 1
  40   19   65 1
  41   19   66 1
  42   20   21 1
  43   20   67 1
  44   20   68 1
  45   21   22 1
  46   21   24 1
  47   22   23 1
  48   22   69 1
  49   22   70 1
  50   23   71 1
  51   23   72 1
  52   24   73 1
  53   24   74 1
  54   24   75 1
  55   26   42 am
  56   26   28 1
  57   27   28 ar
  58   27   29 ar
  59   28   32 ar
  60   29   30 ar
  61   29   76 1
  62   30   31 ar
  63   30   50 1
  64   31   32 ar
  65   31   33 1
  66   32   77 1
  67   34   35 ar
  68   34   36 ar
  69   34   42 1
  70   35   41 1
  71   35   39 ar
  72   36   37 ar
  73   36   78 1
  74   37   38 ar
  75   37   79 1
  76   38   39 ar
  77   38   40 1
  78   39   80 1
  79   42   43 2
  80   42   44 2
  81   45   46 1
  82   46   47 1
  83   46   81 1
  84   46   82 1
  85   47   48 1
  86   47   49 1
  87   47   83 1
  88   50   51 3

#	End of record

