#	Name: ASD03081138
#	Creating user name:	WinNT
#	Creation time:	15. 06. 2019 20:27

#	Modifying user name:	WinNT
#	Modification time:	15. 06. 2019 20:27

#	Program:	/corina/corina34_cracker 3.40 0067  02.08.2006

@<TRIPOS>MOLECULE
ASD03081138
  34   37    0    0    0
SMALL
NO_CHARGES


@<TRIPOS>ATOM
   1 O1             0.5805     1.0666    -1.0599 O.3     
   2 N2             0.4098    -0.1007    -0.7789 N.2     
   3 C3             0.9302    -0.3678     0.3914 C.2     
   4 N4             1.4739     0.7744     0.8609 N.2     
   5 C5             1.2462     1.6825    -0.0704 C.2     
   6 C6             1.5161    -1.8342     2.3285 C.ar    
   7 C7             0.9234    -1.6846     1.0766 C.ar    
   8 C8             0.3222    -2.7939     0.4767 C.ar    
   9 C9             0.3421    -3.9997     1.1569 C.ar    
  10 C10            0.9507    -4.0669     2.3966 C.ar    
  11 N11            1.5101    -3.0018     2.9380 N.ar    
  12 C12            2.4404     5.6978     0.0439 C.2     
  13 N13            3.3603     4.7234     0.0982 N.2     
  14 C14            3.0134     3.4613     0.0647 C.2     
  15 C15            1.6478     3.1034    -0.0311 C.2     
  16 C16            0.6970     4.1016    -0.0877 C.2     
  17 N17            1.1040     5.4009    -0.0494 N.pl3   
  18 N18            0.4015     6.6109    -0.0870 N.2     
  19 C19            1.2607     7.6019    -0.0202 C.2     
  20 C20            2.5442     7.0815     0.0683 C.2     
  21 C21           -0.7673     3.7602    -0.1895 C.3     
  22 C22            0.9093     9.0674    -0.0325 C.3     
  23 H23            1.9884    -0.9860     2.8017 H       
  24 H24           -0.1466    -2.7128    -0.4929 H       
  25 H25           -0.1132    -4.8782     0.7241 H       
  26 H26            0.9682    -5.0057     2.9301 H       
  27 H27            3.7706     2.6925     0.1093 H       
  28 H28            3.4591     7.6508     0.1412 H       
  29 H29           -0.8838     2.6792    -0.2668 H       
  30 H30           -1.2868     4.1190     0.6990 H       
  31 H31           -1.1905     4.2354    -1.0745 H       
  32 H32            0.7549     9.4125     0.9898 H       
  33 H33            1.7228     9.6323    -0.4877 H       
  34 H34           -0.0039     9.2172    -0.6084 H       
@<TRIPOS>BOND
   1    1    2 1
   2    1    5 1
   3    2    3 2
   4    3    4 1
   5    3    7 1
   6    4    5 2
   7    5   15 1
   8    6    7 ar
   9    6   11 ar
  10    6   23 1
  11    7    8 ar
  12    8    9 ar
  13    8   24 1
  14    9   10 ar
  15    9   25 1
  16   10   11 ar
  17   10   26 1
  18   12   13 1
  19   12   17 1
  20   12   20 2
  21   13   14 2
  22   14   15 1
  23   14   27 1
  24   15   16 2
  25   16   17 1
  26   16   21 1
  27   17   18 1
  28   18   19 2
  29   19   20 1
  30   19   22 1
  31   20   28 1
  32   21   29 1
  33   21   30 1
  34   21   31 1
  35   22   32 1
  36   22   33 1
  37   22   34 1

#	End of record

