#	Name: ASD01810533
#	Creating user name:	WinNT
#	Creation time:	15. 06. 2019 19:24

#	Modifying user name:	WinNT
#	Modification time:	15. 06. 2019 19:24

#	Program:	/corina/corina34_cracker 3.40 0067  02.08.2006

@<TRIPOS>MOLECULE
ASD01810533
 112  116    0    0    0
SMALL
NO_CHARGES


@<TRIPOS>ATOM
   1 S1             1.6562     1.9843    -0.6294 S.3     
   2 C2             2.3683     0.7117     0.4811 C.3     
   3 N3             1.3417    -0.3309     0.5128 N.am    
   4 C4             0.1221    -0.0137     0.0880 C.2     
   5 C5            -0.0746     1.4122    -0.3887 C.3     
   6 C6             3.6696     0.1853    -0.1100 C.3     
   7 C7             4.2469    -0.8973     0.8092 C.3     
   8 N8             4.3564    -0.3519     2.1691 N.am    
   9 C9             3.1624     0.2304     2.7969 C.3     
  10 C10            2.5920     1.3061     1.8655 C.3     
  11 C11           -0.8472     1.4436    -1.7089 C.3     
  12 C12           -1.1360     2.8952    -2.0964 C.3     
  13 O13           -0.7834    -0.8206     0.0825 O.2     
  14 C14            1.6476    -1.6797     0.9961 C.3     
  15 N15            7.1421   -16.0524    -4.1107 N.3     
  16 C16            7.7969   -17.2820    -3.6463 C.3     
  17 C17            8.3158   -18.0712    -4.8505 C.3     
  18 C18            7.1435   -18.4127    -5.7743 C.3     
  19 C19            6.4491   -17.1177    -6.2048 C.3     
  20 C20            5.9843   -16.3561    -4.9614 C.3     
  21 N21            7.6421   -19.1177    -6.9578 N.am    
  22 C22            7.2782   -20.4022    -7.3550 C.ar    
  23 C23            8.5256   -18.6321    -7.8502 C.2     
  24 N24            8.7541   -19.5506    -8.8077 N.am    
  25 C25            7.9852   -20.6776    -8.5271 C.ar    
  26 C26            7.8248   -21.9015    -9.1588 C.ar    
  27 C27            6.9666   -22.8431    -8.6256 C.ar    
  28 C28            6.2655   -22.5699    -7.4635 C.ar    
  29 C29            6.4167   -21.3528    -6.8287 C.ar    
  30 O30            9.0396   -17.5303    -7.7990 O.2     
  31 O31            5.6179     0.1177     4.0748 O.3     
  32 C32            6.9143     0.0476     4.7251 C.3     
  33 C33            7.9427     0.8204     3.8970 C.3     
  34 C34            6.8179     0.6635     6.1224 C.3     
  35 C35            7.3481    -1.4150     4.8413 C.3     
  36 C36            5.5310    -0.3855     2.8290 C.2     
  37 O37            6.5117    -0.8700     2.2997 O.2     
  38 C38            2.0519    -2.5650    -0.1844 C.3     
  39 C39            2.4986    -3.9334     0.3339 C.3     
  40 C40            2.9029    -4.8188    -0.8466 C.3     
  41 C41            3.3497    -6.1872    -0.3283 C.3     
  42 C42            3.7540    -7.0726    -1.5088 C.3     
  43 C43            4.2007    -8.4410    -0.9905 C.3     
  44 C44            4.6050    -9.3264    -2.1711 C.3     
  45 C45            5.0518   -10.6948    -1.6528 C.3     
  46 C46            5.4561   -11.5801    -2.8333 C.3     
  47 C47            5.9029   -12.9486    -2.3150 C.3     
  48 C48            6.3071   -13.8339    -3.4955 C.3     
  49 C49            6.7539   -15.2024    -2.9772 C.3     
  50 H50           -0.5784     2.0094     0.3713 H       
  51 H51            3.4756    -0.2398    -1.0948 H       
  52 H52            4.3842     1.0032    -0.2016 H       
  53 H53            3.5850    -1.7632     0.8148 H       
  54 H54            5.2341    -1.1912     0.4526 H       
  55 H55            2.4164    -0.5483     2.9561 H       
  56 H56            3.4340     0.6804     3.7519 H       
  57 H57            3.2951     2.1361     1.7953 H       
  58 H58            1.6434     1.6661     2.2639 H       
  59 H59           -0.2516     0.9707    -2.4897 H       
  60 H60           -1.7875     0.9046    -1.5925 H       
  61 H61           -1.6865     2.9175    -3.0370 H       
  62 H62           -1.7316     3.3681    -1.3156 H       
  63 H63           -0.1958     3.4342    -2.2129 H       
  64 H64            2.4681    -1.6316     1.7120 H       
  65 H65            0.7666    -2.1004     1.4809 H       
  66 H66            8.6313   -17.0250    -2.9937 H       
  67 H67            7.0792   -17.8900    -3.0956 H       
  68 H68            9.0439   -17.4690    -5.3939 H       
  69 H69            8.7880   -18.9914    -4.5064 H       
  70 H70            6.4340   -19.0472    -5.2432 H       
  71 H71            7.1479   -16.5005    -6.7696 H       
  72 H72            5.5876   -17.3566    -6.8284 H       
  73 H73            5.2751   -16.9684    -4.4045 H       
  74 H74            5.5022   -15.4266    -5.2640 H       
  75 H75            9.3506   -19.4446    -9.5653 H       
  76 H76            8.3696   -22.1179   -10.0659 H       
  77 H77            6.8417   -23.7964    -9.1175 H       
  78 H78            5.5959   -23.3111    -7.0527 H       
  79 H79            5.8681   -21.1432    -5.9223 H       
  80 H80            7.6336     1.8624     3.8142 H       
  81 H81            8.9159     0.7678     4.3852 H       
  82 H82            8.0114     0.3816     2.9016 H       
  83 H83            6.0851     0.1129     6.7124 H       
  84 H84            7.7910     0.6109     6.6106 H       
  85 H85            6.5087     1.7055     6.0396 H       
  86 H86            7.4168    -1.8538     3.8459 H       
  87 H87            8.3213    -1.4676     5.3295 H       
  88 H88            6.6154    -1.9656     5.4313 H       
  89 H89            1.2002    -2.6901    -0.8531 H       
  90 H90            2.8732    -2.0957    -0.7259 H       
  91 H91            3.3503    -3.8084     1.0026 H       
  92 H92            1.6773    -4.4027     0.8754 H       
  93 H93            2.0513    -4.9439    -1.5153 H       
  94 H94            3.7243    -4.3495    -1.3882 H       
  95 H95            4.2013    -6.0621     0.3404 H       
  96 H96            2.5283    -6.6565     0.2132 H       
  97 H97            2.9024    -7.1977    -2.1776 H       
  98 H98            4.5753    -6.6033    -2.0504 H       
  99 H99            5.0524    -8.3159    -0.3218 H       
 100 H100           3.3794    -8.9103    -0.4490 H       
 101 H101           3.7534    -9.4514    -2.8398 H       
 102 H102           5.4264    -8.8571    -2.7126 H       
 103 H103           5.9034   -10.5697    -0.9840 H       
 104 H104           4.2305   -11.1641    -1.1112 H       
 105 H105           4.6045   -11.7052    -3.5020 H       
 106 H106           6.2774   -11.1109    -3.3748 H       
 107 H107           6.7545   -12.8235    -1.6463 H       
 108 H108           5.0815   -13.4179    -1.7735 H       
 109 H109           5.4555   -13.9590    -4.1642 H       
 110 H110           7.1285   -13.3647    -4.0371 H       
 111 H111           5.9326   -15.6717    -2.4357 H       
 112 H112           7.6055   -15.0773    -2.3085 H       
@<TRIPOS>BOND
   1    1    2 1
   2    1    5 1
   3    2    3 1
   4    2    6 1
   5    2   10 1
   6    3    4 am
   7    3   14 1
   8    4    5 1
   9    4   13 2
  10    5   11 1
  11    5   50 1
  12    6    7 1
  13    6   51 1
  14    6   52 1
  15    7    8 1
  16    7   53 1
  17    7   54 1
  18    8   36 am
  19    8    9 1
  20    9   10 1
  21    9   55 1
  22    9   56 1
  23   10   57 1
  24   10   58 1
  25   11   12 1
  26   11   59 1
  27   11   60 1
  28   12   61 1
  29   12   62 1
  30   12   63 1
  31   14   38 1
  32   14   64 1
  33   14   65 1
  34   15   49 1
  35   15   16 1
  36   15   20 1
  37   16   17 1
  38   16   66 1
  39   16   67 1
  40   17   18 1
  41   17   68 1
  42   17   69 1
  43   18   19 1
  44   18   21 1
  45   18   70 1
  46   19   20 1
  47   19   71 1
  48   19   72 1
  49   20   73 1
  50   20   74 1
  51   21   22 1
  52   21   23 am
  53   22   25 ar
  54   22   29 ar
  55   23   24 am
  56   23   30 2
  57   24   25 1
  58   24   75 1
  59   25   26 ar
  60   26   27 ar
  61   26   76 1
  62   27   28 ar
  63   27   77 1
  64   28   29 ar
  65   28   78 1
  66   29   79 1
  67   31   32 1
  68   31   36 1
  69   32   33 1
  70   32   34 1
  71   32   35 1
  72   33   80 1
  73   33   81 1
  74   33   82 1
  75   34   83 1
  76   34   84 1
  77   34   85 1
  78   35   86 1
  79   35   87 1
  80   35   88 1
  81   36   37 2
  82   38   39 1
  83   38   89 1
  84   38   90 1
  85   39   40 1
  86   39   91 1
  87   39   92 1
  88   40   41 1
  89   40   93 1
  90   40   94 1
  91   41   42 1
  92   41   95 1
  93   41   96 1
  94   42   43 1
  95   42   97 1
  96   42   98 1
  97   43   44 1
  98   43   99 1
  99   43  100 1
 100   44   45 1
 101   44  101 1
 102   44  102 1
 103   45   46 1
 104   45  103 1
 105   45  104 1
 106   46   47 1
 107   46  105 1
 108   46  106 1
 109   47   48 1
 110   47  107 1
 111   47  108 1
 112   48   49 1
 113   48  109 1
 114   48  110 1
 115   49  111 1
 116   49  112 1

#	End of record

