#	Name: ASD01912411
#	Creating user name:	WinNT
#	Creation time:	15. 06. 2019 19:59

#	Modifying user name:	WinNT
#	Modification time:	15. 06. 2019 19:59

#	Program:	/corina/corina34_cracker 3.40 0067  02.08.2006

@<TRIPOS>MOLECULE
ASD01912411
  51   53    0    0    0
SMALL
NO_CHARGES


@<TRIPOS>ATOM
   1 C1            -0.0871     1.4580     0.1212 C.ar    
   2 C2            -0.0882     0.0747     0.1152 C.ar    
   3 C3             1.1198    -0.6085     0.0779 C.ar    
   4 C4             2.2928     0.1238     0.0478 C.ar    
   5 C5             2.2214     1.5195     0.0559 C.ar    
   6 N6             1.0424     2.1343     0.0920 N.ar    
   7 C7             3.4261     2.2932     0.0250 C.1     
   8 C8             4.4137     2.9274    -0.0003 C.1     
   9 C9             5.6183     3.7011    -0.0312 C.2     
  10 N10            5.4053     7.6840    -0.9187 N.3     
  11 C11            6.6501     6.9393    -1.1466 C.3     
  12 C12            6.8134     5.8746    -0.0558 C.3     
  13 C13            5.5556     5.0319    -0.0237 C.2     
  14 C14            4.2243     5.7524     0.0168 C.3     
  15 C15            4.2255     6.8248    -1.0786 C.3     
  16 C16            6.2232     9.8629    -1.6067 C.ar    
  17 C17            5.3290     8.8020    -1.7573 C.ar    
  18 C18            4.3624     8.8725    -2.7525 C.ar    
  19 C19            4.3263    10.0011    -3.5596 C.ar    
  20 C20            5.2435    11.0111    -3.3516 C.ar    
  21 N21            6.1521    10.9183    -2.3980 N.ar    
  22 O22            7.1704     9.8123    -0.6353 O.3     
  23 C23            8.0552    10.9298    -0.5331 C.3     
  24 C24            9.0454    10.6936     0.6091 C.3     
  25 C25            9.9927    11.8900     0.7185 C.3     
  26 C26           -1.3974     2.2017     0.1554 C.3     
  27 H27           -1.0209    -0.4692     0.1397 H       
  28 H28            1.1431    -1.6883     0.0729 H       
  29 H29            3.2499    -0.3757     0.0187 H       
  30 H30            6.5776     3.2058    -0.0607 H       
  31 H31            6.6113     6.4564    -2.1230 H       
  32 H32            7.4958     7.6261    -1.1138 H       
  33 H33            7.6728     5.2439    -0.2834 H       
  34 H34            6.9571     6.3577     0.9108 H       
  35 H35            3.4168     5.0430    -0.1641 H       
  36 H36            4.0901     6.2223     0.9911 H       
  37 H37            3.3220     7.4291    -0.9968 H       
  38 H38            4.2549     6.3451    -2.0570 H       
  39 H39            3.6560     8.0681    -2.8950 H       
  40 H40            3.5879    10.0879    -4.3430 H       
  41 H41            5.2180    11.8903    -3.9784 H       
  42 H42            8.6015    11.0475    -1.4690 H       
  43 H43            7.4785    11.8328    -0.3330 H       
  44 H44            8.4991    10.5759     1.5450 H       
  45 H45            9.6222     9.7906     0.4091 H       
  46 H46           10.5390    12.0077    -0.2173 H       
  47 H47            9.4159    12.7930     0.9186 H       
  48 H48           10.6981    11.7217     1.5323 H       
  49 H49           -1.6891     2.3765     1.1910 H       
  50 H50           -1.2863     3.1573    -0.3571 H       
  51 H51           -2.1646     1.6091    -0.3431 H       
@<TRIPOS>BOND
   1    1    2 ar
   2    1    6 ar
   3    1   26 1
   4    2    3 ar
   5    2   27 1
   6    3    4 ar
   7    3   28 1
   8    4    5 ar
   9    4   29 1
  10    5    6 ar
  11    5    7 1
  12    7    8 3
  13    8    9 1
  14    9   13 2
  15    9   30 1
  16   10   11 1
  17   10   15 1
  18   10   17 1
  19   11   12 1
  20   11   31 1
  21   11   32 1
  22   12   13 1
  23   12   33 1
  24   12   34 1
  25   13   14 1
  26   14   15 1
  27   14   35 1
  28   14   36 1
  29   15   37 1
  30   15   38 1
  31   16   17 ar
  32   16   21 ar
  33   16   22 1
  34   17   18 ar
  35   18   19 ar
  36   18   39 1
  37   19   20 ar
  38   19   40 1
  39   20   21 ar
  40   20   41 1
  41   22   23 1
  42   23   24 1
  43   23   42 1
  44   23   43 1
  45   24   25 1
  46   24   44 1
  47   24   45 1
  48   25   46 1
  49   25   47 1
  50   25   48 1
  51   26   49 1
  52   26   50 1
  53   26   51 1

#	End of record

