#	Name: ASD01914269
#	Creating user name:	WinNT
#	Creation time:	15. 06. 2019 20:03

#	Modifying user name:	WinNT
#	Modification time:	15. 06. 2019 20:03

#	Program:	/corina/corina34_cracker 3.40 0067  02.08.2006

@<TRIPOS>MOLECULE
ASD01914269
  31   33    0    0    0
SMALL
NO_CHARGES


@<TRIPOS>ATOM
   1 N1            -0.0154     1.2833     0.0091 N.2     
   2 N2             0.0021    -0.0041     0.0020 N.pl3   
   3 N3             1.1958    -0.4863    -0.0120 N.2     
   4 C4             2.0615     0.5146    -0.0149 C.ar    
   5 C5             1.2309     1.7280    -0.0004 C.ar    
   6 C6             1.8655     2.9826    -0.0004 C.ar    
   7 C7             3.2225     3.0458    -0.0137 C.ar    
   8 C8             4.0106     1.8944    -0.0278 C.ar    
   9 C9             3.4606     0.6522    -0.0282 C.ar    
  10 C10           -1.2068    -0.8316     0.0099 C.3     
  11 C11           -1.6423    -1.1119    -1.4298 C.3     
  12 C12           -2.8570    -1.9433    -1.4219 C.1     
  13 C13           -3.8258    -2.6064    -1.4156 C.1     
  14 S14           -7.0115    -4.7943    -0.7222 S.3     
  15 C15           -6.6708    -4.5412    -2.3777 C.2     
  16 N16           -5.6150    -3.8174    -2.5164 N.2     
  17 C17           -5.0075    -3.4153    -1.4079 C.2     
  18 C18           -5.6033    -3.8365    -0.2712 C.2     
  19 C19           -7.4915    -5.0893    -3.5166 C.3     
  20 H20            1.2787     3.8892     0.0097 H       
  21 H21            3.7040     4.0126    -0.0136 H       
  22 H22            5.0860     1.9933    -0.0384 H       
  23 H23            4.0933    -0.2230    -0.0388 H       
  24 H24           -0.9988    -1.7739     0.5166 H       
  25 H25           -2.0040    -0.3051     0.5347 H       
  26 H26           -1.8504    -0.1695    -1.9365 H       
  27 H27           -0.8451    -1.6383    -1.9546 H       
  28 H28           -5.2751    -3.6234     0.7354 H       
  29 H29           -8.3267    -5.6653    -3.1182 H       
  30 H30           -7.8731    -4.2650    -4.1191 H       
  31 H31           -6.8682    -5.7341    -4.1361 H       
@<TRIPOS>BOND
   1    1    2 1
   2    1    5 2
   3    2    3 1
   4    2   10 1
   5    3    4 2
   6    4    5 ar
   7    4    9 ar
   8    5    6 ar
   9    6    7 ar
  10    6   20 1
  11    7    8 ar
  12    7   21 1
  13    8    9 ar
  14    8   22 1
  15    9   23 1
  16   10   11 1
  17   10   24 1
  18   10   25 1
  19   11   12 1
  20   11   26 1
  21   11   27 1
  22   12   13 3
  23   13   17 1
  24   14   15 1
  25   14   18 1
  26   15   16 2
  27   15   19 1
  28   16   17 1
  29   17   18 2
  30   18   28 1
  31   19   29 1
  32   19   30 1
  33   19   31 1

#	End of record

