#	Name: ASD01200282
#	Creating user name:	WinNT
#	Creation time:	15. 06. 2019 19:08

#	Modifying user name:	WinNT
#	Modification time:	15. 06. 2019 19:08

#	Program:	/corina/corina34_cracker 3.40 0067  02.08.2006

@<TRIPOS>MOLECULE
ASD01200282
  39   40    0    0    0
SMALL
NO_CHARGES


@<TRIPOS>ATOM
   1 C1            -0.0162     1.3409     0.0094 C.2     
   2 C2             0.0021    -0.0041     0.0020 C.2     
   3 C3             1.3606    -0.3952    -0.0131 C.2     
   4 C4             2.0913     0.7342    -0.0140 C.2     
   5 O5             1.2521     1.7826    -0.0003 O.3     
   6 C6             3.5964     0.8101    -0.0275 C.3     
   7 N7             4.0713     0.8418    -1.4130 N.am    
   8 C8             5.3924     0.9099    -1.6711 C.2     
   9 N9             5.8293     0.9391    -2.9458 N.am    
  10 S10            6.5154     0.9592    -0.3799 S.2     
  11 N11            4.9102     0.8987    -4.0024 N.2     
  12 C12            5.3310     0.9268    -5.2299 C.2     
  13 C13            4.3640     0.8844    -6.3416 C.ar    
  14 C14            4.8134     0.9145    -7.6647 C.ar    
  15 C15            2.9916     0.8079    -6.0774 C.ar    
  16 C16            2.0885     0.7685    -7.1331 C.ar    
  17 C17            2.5483     0.8044    -8.4401 C.ar    
  18 C18            3.9059     0.8746    -8.7018 C.ar    
  19 O19            2.5442     0.7720    -4.7945 O.3     
  20 C20            2.2621     2.0262    -4.1705 C.3     
  21 O21            0.7537     0.6942    -6.8836 O.3     
  22 C22           -0.1169     0.6571    -8.0162 C.3     
  23 H23           -0.9007     1.9605     0.0172 H       
  24 H24           -0.8563    -0.6594     0.0072 H       
  25 H25            1.7391    -1.4067    -0.0218 H       
  26 H26            3.9192     1.7146     0.4881 H       
  27 H27            4.0088    -0.0631     0.4781 H       
  28 H28            3.4350     0.8139    -2.1446 H       
  29 H29            6.7801     0.9880    -3.1316 H       
  30 H30            6.3896     0.9813    -5.4368 H       
  31 H31            5.8714     0.9693    -7.8747 H       
  32 H32            1.8442     0.7732    -9.2584 H       
  33 H33            4.2555     0.9026    -9.7233 H       
  34 H34            1.4895     2.5475    -4.7356 H       
  35 H35            1.9141     1.8550    -3.1518 H       
  36 H36            3.1675     2.6326    -4.1480 H       
  37 H37            0.0203     1.5611    -8.6096 H       
  38 H38            0.1163    -0.2162    -8.6253 H       
  39 H39           -1.1513     0.5983    -7.6776 H       
@<TRIPOS>BOND
   1    1    2 2
   2    1    5 1
   3    1   23 1
   4    2    3 1
   5    2   24 1
   6    3    4 2
   7    3   25 1
   8    4    5 1
   9    4    6 1
  10    6    7 1
  11    6   26 1
  12    6   27 1
  13    7    8 am
  14    7   28 1
  15    8    9 am
  16    8   10 2
  17    9   11 1
  18    9   29 1
  19   11   12 2
  20   12   13 1
  21   12   30 1
  22   13   14 ar
  23   13   15 ar
  24   14   18 ar
  25   14   31 1
  26   15   16 ar
  27   15   19 1
  28   16   17 ar
  29   16   21 1
  30   17   18 ar
  31   17   32 1
  32   18   33 1
  33   19   20 1
  34   20   34 1
  35   20   35 1
  36   20   36 1
  37   21   22 1
  38   22   37 1
  39   22   38 1
  40   22   39 1

#	End of record

