#	Name: ASD01912237
#	Creating user name:	WinNT
#	Creation time:	15. 06. 2019 19:59

#	Modifying user name:	WinNT
#	Modification time:	15. 06. 2019 19:59

#	Program:	/corina/corina34_cracker 3.40 0067  02.08.2006

@<TRIPOS>MOLECULE
ASD01912237
  44   46    0    0    0
SMALL
NO_CHARGES


@<TRIPOS>ATOM
   1 C1            -0.0790     1.2333     0.1585 C.ar    
   2 C2             0.1525     0.2506    -0.7990 C.ar    
   3 C3             1.4318    -0.2522    -0.9510 C.ar    
   4 C4             2.4409     0.2463    -0.1373 C.ar    
   5 C5             2.1403     1.2214     0.7921 C.ar    
   6 N6             0.9100     1.6828     0.9153 N.ar    
   7 N7            -0.8618    -0.2078    -1.5716 N.pl3   
   8 O8            -0.6741    -1.1395    -2.3334 O.2     
   9 O9            -1.9614     0.3119    -1.5045 O.2     
  10 N10           -1.3588     1.7517     0.3180 N.3     
  11 C11           -1.3103     3.1845     0.6354 C.3     
  12 C12           -2.7252     3.7701     0.5634 C.3     
  13 C13           -3.6266     2.9430     1.4561 C.2     
  14 C14           -3.5777     1.4368     1.3071 C.3     
  15 C15           -2.1086     0.9995     1.3318 C.3     
  16 C16           -4.4353     3.5212     2.3432 C.2     
  17 C17           -5.2777     2.7161     3.1755 C.1     
  18 C18           -5.9684     2.0559     3.8578 C.1     
  19 C19           -6.8108     1.2508     4.6900 C.ar    
  20 C20           -7.6607     1.8637     5.6227 C.ar    
  21 C21           -8.4699     1.0654     6.4198 C.ar    
  22 C22           -8.4044    -0.3112     6.2605 C.ar    
  23 C23           -7.5429    -0.8482     5.3205 C.ar    
  24 N24           -6.7870    -0.0734     4.5704 N.ar    
  25 O25           -7.6911     3.2161     5.7443 O.3     
  26 C26           -8.5844     3.7600     6.7180 C.3     
  27 H27            1.6414    -1.0156    -1.6856 H       
  28 H28            3.4506    -0.1255    -0.2307 H       
  29 H29            2.9220     1.6119     1.4268 H       
  30 H30           -0.9111     3.3209     1.6404 H       
  31 H31           -0.6688     3.6945    -0.0833 H       
  32 H32           -2.7134     4.8036     0.9094 H       
  33 H33           -3.0879     3.7298    -0.4637 H       
  34 H34           -4.1147     0.9682     2.1318 H       
  35 H35           -4.0319     1.1462     0.3598 H       
  36 H36           -2.0431    -0.0668     1.1156 H       
  37 H37           -1.6869     1.1975     2.3172 H       
  38 H38           -4.4554     4.5972     2.4347 H       
  39 H39           -9.1350     1.5060     7.1477 H       
  40 H40           -9.0211    -0.9589     6.8659 H       
  41 H41           -7.4922    -1.9199     5.1973 H       
  42 H42           -9.6060     3.4644     6.4791 H       
  43 H43           -8.3186     3.3831     7.7056 H       
  44 H44           -8.5100     4.8475     6.7121 H       
@<TRIPOS>BOND
   1    1    2 ar
   2    1    6 ar
   3    1   10 1
   4    2    3 ar
   5    2    7 1
   6    3    4 ar
   7    3   27 1
   8    4    5 ar
   9    4   28 1
  10    5    6 ar
  11    5   29 1
  12    7    8 2
  13    7    9 2
  14   10   11 1
  15   10   15 1
  16   11   12 1
  17   11   30 1
  18   11   31 1
  19   12   13 1
  20   12   32 1
  21   12   33 1
  22   13   14 1
  23   13   16 2
  24   14   15 1
  25   14   34 1
  26   14   35 1
  27   15   36 1
  28   15   37 1
  29   16   17 1
  30   16   38 1
  31   17   18 3
  32   18   19 1
  33   19   20 ar
  34   19   24 ar
  35   20   21 ar
  36   20   25 1
  37   21   22 ar
  38   21   39 1
  39   22   23 ar
  40   22   40 1
  41   23   24 ar
  42   23   41 1
  43   25   26 1
  44   26   42 1
  45   26   43 1
  46   26   44 1

#	End of record

