#	Name: ASD03930239
#	Creating user name:	WinNT
#	Creation time:	15. 06. 2019 20:47

#	Modifying user name:	WinNT
#	Modification time:	15. 06. 2019 20:47

#	Program:	/corina/corina34_cracker 3.40 0067  02.08.2006

@<TRIPOS>MOLECULE
ASD03930239
  43   45    0    0    0
SMALL
NO_CHARGES


@<TRIPOS>ATOM
   1 C1            -0.0187     1.5258     0.0104 C.3     
   2 C2             0.0021    -0.0041     0.0020 C.3     
   3 O3             0.6932    -0.4774     1.1597 O.3     
   4 C4             0.8019    -1.8235     1.3056 C.ar    
   5 C5             0.2609    -2.6720     0.3534 C.ar    
   6 C6             0.3722    -4.0416     0.5030 C.ar    
   7 C7             1.0230    -4.5736     1.6020 C.ar    
   8 C8             1.5664    -3.7404     2.5588 C.ar    
   9 C9             1.4656    -2.3582     2.4151 C.ar    
  10 C10            2.0531    -1.4586     3.4360 C.ar    
  11 C11            2.8747    -0.4013     3.0440 C.ar    
  12 C12            3.4207     0.4346     3.9919 C.ar    
  13 C13            3.1516     0.2244     5.3459 C.ar    
  14 C14            2.3289    -0.8337     5.7376 C.ar    
  15 C15            1.7796    -1.6660     4.7884 C.ar    
  16 C16            3.7384     1.1220     6.3650 C.2     
  17 C17            5.1129     1.2914     6.6807 C.2     
  18 N18            5.1882     2.1854     7.6460 N.2     
  19 N19            4.0225     2.6044     7.9811 N.pl3   
  20 C20            3.7573     3.6008     9.0219 C.3     
  21 C21            3.0632     1.9915     7.2217 C.2     
  22 C22            1.6138     2.2043     7.2957 C.2     
  23 O23            1.1059     3.0849     8.1820 O.3     
  24 O24            0.8702     1.5868     6.5579 O.2     
  25 C25            6.2141     0.6149     6.0639 C.1     
  26 N26            7.0876     0.0782     5.5746 N.1     
  27 H27            1.0039     1.9031     0.0027 H       
  28 H28           -0.5459     1.8868    -0.8726 H       
  29 H29           -0.5289     1.8773     0.9072 H       
  30 H30           -1.0205    -0.3814     0.0098 H       
  31 H31            0.5123    -0.3556    -0.8948 H       
  32 H32           -0.2486    -2.2628    -0.5065 H       
  33 H33           -0.0513    -4.6997    -0.2414 H       
  34 H34            1.1057    -5.6448     1.7118 H       
  35 H35            2.0731    -4.1593     3.4157 H       
  36 H36            3.0827    -0.2388     1.9967 H       
  37 H37            4.0572     1.2526     3.6884 H       
  38 H38            2.1208    -0.9970     6.7847 H       
  39 H39            1.1403    -2.4821     5.0910 H       
  40 H40            3.7601     4.5972     8.5800 H       
  41 H41            2.7841     3.4057     9.4722 H       
  42 H42            4.5306     3.5408     9.7877 H       
  43 H43            0.1448     3.1911     8.1938 H       
@<TRIPOS>BOND
   1    1    2 1
   2    1   27 1
   3    1   28 1
   4    1   29 1
   5    2    3 1
   6    2   30 1
   7    2   31 1
   8    3    4 1
   9    4    9 ar
  10    4    5 ar
  11    5    6 ar
  12    5   32 1
  13    6    7 ar
  14    6   33 1
  15    7    8 ar
  16    7   34 1
  17    8    9 ar
  18    8   35 1
  19    9   10 1
  20   10   15 ar
  21   10   11 ar
  22   11   12 ar
  23   11   36 1
  24   12   13 ar
  25   12   37 1
  26   13   14 ar
  27   13   16 1
  28   14   15 ar
  29   14   38 1
  30   15   39 1
  31   16   21 2
  32   16   17 1
  33   17   18 2
  34   17   25 1
  35   18   19 1
  36   19   20 1
  37   19   21 1
  38   20   40 1
  39   20   41 1
  40   20   42 1
  41   21   22 1
  42   22   23 1
  43   22   24 2
  44   23   43 1
  45   25   26 3

#	End of record

