#	Name: ASD03730735
#	Creating user name:	WinNT
#	Creation time:	15. 06. 2019 20:44

#	Modifying user name:	WinNT
#	Modification time:	15. 06. 2019 20:44

#	Program:	/corina/corina34_cracker 3.40 0067  02.08.2006

@<TRIPOS>MOLECULE
ASD03730735
  59   65    0    0    0
SMALL
NO_CHARGES


@<TRIPOS>ATOM
   1 C1             1.5573    -1.2864    -2.4137 C.2     
   2 C2             0.7041    -1.1969    -1.2096 C.ar    
   3 C3             1.2056    -0.6325    -0.0354 C.ar    
   4 C4             0.4041    -0.5515     1.0843 C.ar    
   5 C5            -0.8942    -1.0286     1.0455 C.ar    
   6 C6            -1.3974    -1.5891    -0.1148 C.ar    
   7 C7            -0.6081    -1.6709    -1.2436 C.ar    
   8 O8             2.6651    -0.7862    -2.4121 O.2     
   9 N9             1.1089    -1.9275    -3.5111 N.am    
  10 C10            2.6196    -0.1133     0.0088 C.3     
  11 O11            0.0928    -1.7703     6.5327 O.3     
  12 C12            0.0950    -1.6641     7.9686 C.3     
  13 O13            1.4935    -1.6023     8.3051 O.3     
  14 C14            2.1096    -1.0652     7.2111 C.ar    
  15 C15            1.2482    -1.1698     6.1214 C.ar    
  16 C16            3.3557    -0.4852     7.0546 C.ar    
  17 C17            3.7588    -0.0048     5.8123 C.ar    
  18 C18            2.8928    -0.1223     4.7294 C.ar    
  19 C19            1.6474    -0.6946     4.8835 C.ar    
  20 O20            4.9220     0.6087     5.4504 O.3     
  21 C21            3.6136     0.4527     3.5395 C.3     
  22 C22            5.0688     0.5419     4.0188 C.3     
  23 N23            2.9248     0.3575     1.3621 N.am    
  24 C24            3.4778    -0.4129     2.3201 C.2     
  25 C25            3.0735     1.7932     3.1379 C.ar    
  26 C26            2.9244     2.9944     3.7945 C.ar    
  27 C27            2.3780     4.0812     3.1354 C.ar    
  28 C28            1.9815     3.9580     1.8161 C.ar    
  29 C29            2.1280     2.7567     1.1544 C.ar    
  30 C30            2.6774     1.6574     1.8099 C.ar    
  31 O31            3.8025    -1.5770     2.2171 O.2     
  32 C32            1.9544    -2.0163    -4.7043 C.3     
  33 C33            1.2140    -2.7890    -5.7977 C.3     
  34 C34            1.8848    -2.8901    -7.1691 C.3     
  35 C35            1.8189    -4.1170    -6.2574 C.3     
  36 H36            0.7909    -0.1151     1.9933 H       
  37 H37           -1.5174    -0.9635     1.9252 H       
  38 H38           -2.4115    -1.9596    -0.1385 H       
  39 H39           -1.0034    -2.1050    -2.1501 H       
  40 H40            0.2264    -2.3301    -3.5110 H       
  41 H41            3.3090    -0.9131    -0.2617 H       
  42 H42            2.7260     0.7118    -0.6955 H       
  43 H43           -0.4159    -0.7551     8.2861 H       
  44 H44           -0.3687    -2.5421     8.4182 H       
  45 H45            4.0201    -0.4047     7.9022 H       
  46 H46            0.9819    -0.7725     4.0364 H       
  47 H47            5.5478     1.4433     3.6364 H       
  48 H48            5.6274    -0.3477     3.7280 H       
  49 H49            3.2345     3.0882     4.8247 H       
  50 H50            2.2617     5.0237     3.6497 H       
  51 H51            1.5549     4.8064     1.3017 H       
  52 H52            1.8155     2.6681     0.1244 H       
  53 H53            2.1853    -1.0127    -5.0615 H       
  54 H54            2.8801    -2.5354    -4.4558 H       
  55 H55            0.1269    -2.7123    -5.7736 H       
  56 H56            1.2391    -2.8803    -8.0471 H       
  57 H57            2.8536    -2.4061    -7.2923 H       
  58 H58            2.7444    -4.4402    -5.7808 H       
  59 H59            1.1299    -4.9144    -6.5357 H       
@<TRIPOS>BOND
   1    1    2 1
   2    1    8 2
   3    1    9 am
   4    2    3 ar
   5    2    7 ar
   6    3    4 ar
   7    3   10 1
   8    4    5 ar
   9    4   36 1
  10    5    6 ar
  11    5   37 1
  12    6    7 ar
  13    6   38 1
  14    7   39 1
  15    9   32 1
  16    9   40 1
  17   10   23 1
  18   10   41 1
  19   10   42 1
  20   11   12 1
  21   11   15 1
  22   12   13 1
  23   12   43 1
  24   12   44 1
  25   13   14 1
  26   14   15 ar
  27   14   16 ar
  28   15   19 ar
  29   16   17 ar
  30   16   45 1
  31   17   18 ar
  32   17   20 1
  33   18   19 ar
  34   18   21 1
  35   19   46 1
  36   20   22 1
  37   21   22 1
  38   21   24 1
  39   21   25 1
  40   22   47 1
  41   22   48 1
  42   23   24 am
  43   23   30 1
  44   24   31 2
  45   25   26 ar
  46   25   30 ar
  47   26   27 ar
  48   26   49 1
  49   27   28 ar
  50   27   50 1
  51   28   29 ar
  52   28   51 1
  53   29   30 ar
  54   29   52 1
  55   32   33 1
  56   32   53 1
  57   32   54 1
  58   33   34 1
  59   33   35 1
  60   33   55 1
  61   34   35 1
  62   34   56 1
  63   34   57 1
  64   35   58 1
  65   35   59 1

#	End of record

