#	Name: ASD01816714
#	Creating user name:	WinNT
#	Creation time:	15. 06. 2019 19:35

#	Modifying user name:	WinNT
#	Modification time:	15. 06. 2019 19:35

#	Program:	/corina/corina34_cracker 3.40 0067  02.08.2006

@<TRIPOS>MOLECULE
ASD01816714
  64   68    0    0    0
SMALL
NO_CHARGES


@<TRIPOS>ATOM
   1 C1            -0.0167     1.3961     0.0116 C.2     
   2 C2             0.0025    -0.0052    -0.0048 C.2     
   3 C3             1.1989    -0.6602    -0.0251 C.2     
   4 C4             2.3922     0.0815    -0.0294 C.2     
   5 N5             2.3439     1.4491    -0.0128 N.am    
   6 C6             1.1420     2.0928     0.0071 C.2     
   7 C7             3.6230    -0.5887    -0.0503 C.2     
   8 C8             4.7879     0.1231    -0.0547 C.2     
   9 C9             4.7340     1.5284    -0.0381 C.2     
  10 C10            3.4812     2.1731    -0.0170 C.2     
  11 C11            3.6605    -2.0951    -0.0674 C.3     
  12 O12            3.4255     3.3914    -0.0025 O.2     
  13 C13            5.9710     2.3159    -0.0418 C.2     
  14 N14            7.1647     1.6963     0.0459 N.am    
  15 O15            5.9198     3.5292    -0.1240 O.2     
  16 N16            3.7783    -2.5663    -1.4538 N.3     
  17 C17            4.0551    -4.0078    -1.4979 C.3     
  18 C18            4.3150    -4.4345    -2.9444 C.3     
  19 C19            3.0866    -4.1054    -3.7971 C.3     
  20 C20            2.7910    -2.6065    -3.6952 C.3     
  21 C21            2.5753    -2.2327    -2.2270 C.3     
  22 C22            3.3590    -4.4684    -5.2341 C.ar    
  23 N23            4.5971    -4.7000    -5.6243 N.ar    
  24 C24            1.9281    -4.8697    -3.3065 C.1     
  25 N25            1.0341    -5.4595    -2.9279 N.1     
  26 C26            4.8828    -5.0206    -6.8712 C.ar    
  27 C27            3.8843    -5.1254    -7.8207 C.ar    
  28 C28            2.5697    -4.8890    -7.4477 C.ar    
  29 C29            2.3076    -4.5603    -6.1267 C.ar    
  30 C30            8.4025     2.4710    -0.0711 C.3     
  31 C31            9.5271     1.7332     0.6495 C.3     
  32 C32           10.7518     2.6431     0.7762 C.3     
  33 S33           11.3592     3.0449    -0.8890 S.3     
  34 C34            9.8644     3.6871    -1.6992 C.3     
  35 C35            8.7396     2.6597    -1.5472 C.3     
  36 H36           -0.9604     1.9212     0.0233 H       
  37 H37           -0.9228    -0.5622    -0.0009 H       
  38 H38            1.2286    -1.7397    -0.0375 H       
  39 H39            1.1153     3.1723     0.0200 H       
  40 H40            5.7398    -0.3870    -0.0703 H       
  41 H41            4.5174    -2.4438     0.5089 H       
  42 H42            2.7432    -2.4864     0.3727 H       
  43 H43            7.2041     0.7373     0.1865 H       
  44 H44            4.9334    -4.2277    -0.8910 H       
  45 H45            3.1972    -4.5545    -1.1066 H       
  46 H46            5.1813    -3.8983    -3.3320 H       
  47 H47            4.5050    -5.5073    -2.9788 H       
  48 H48            3.6333    -2.0415    -4.0946 H       
  49 H49            1.8922    -2.3731    -4.2660 H       
  50 H50            1.7243    -2.7877    -1.8322 H       
  51 H51            2.3787    -1.1633    -2.1495 H       
  52 H52            5.9091    -5.2031    -7.1537 H       
  53 H53            4.1246    -5.3876    -8.8404 H       
  54 H54            1.7687    -4.9632    -8.1684 H       
  55 H55            1.2956    -4.3700    -5.8010 H       
  56 H56            8.2598     3.4476     0.3915 H       
  57 H57            9.1891     1.4408     1.6437 H       
  58 H58            9.7958     0.8414     0.0833 H       
  59 H59           10.4731     3.5605     1.2946 H       
  60 H60           11.5330     2.1282     1.3355 H       
  61 H61            9.5684     4.6249    -1.2291 H       
  62 H62           10.0657     3.8544    -2.7573 H       
  63 H63            9.0597     1.7074    -1.9699 H       
  64 H64            7.8548     3.0106    -2.0784 H       
@<TRIPOS>BOND
   1    1    2 1
   2    1    6 2
   3    1   36 1
   4    2    3 2
   5    2   37 1
   6    3    4 1
   7    3   38 1
   8    4    5 1
   9    4    7 2
  10    5    6 1
  11    5   10 am
  12    6   39 1
  13    7    8 1
  14    7   11 1
  15    8    9 2
  16    8   40 1
  17    9   10 1
  18    9   13 1
  19   10   12 2
  20   11   16 1
  21   11   41 1
  22   11   42 1
  23   13   15 2
  24   13   14 am
  25   14   30 1
  26   14   43 1
  27   16   17 1
  28   16   21 1
  29   17   18 1
  30   17   44 1
  31   17   45 1
  32   18   19 1
  33   18   46 1
  34   18   47 1
  35   19   20 1
  36   19   22 1
  37   19   24 1
  38   20   21 1
  39   20   48 1
  40   20   49 1
  41   21   50 1
  42   21   51 1
  43   22   23 ar
  44   22   29 ar
  45   23   26 ar
  46   24   25 3
  47   26   27 ar
  48   26   52 1
  49   27   28 ar
  50   27   53 1
  51   28   29 ar
  52   28   54 1
  53   29   55 1
  54   30   31 1
  55   30   35 1
  56   30   56 1
  57   31   32 1
  58   31   57 1
  59   31   58 1
  60   32   33 1
  61   32   59 1
  62   32   60 1
  63   33   34 1
  64   34   35 1
  65   34   61 1
  66   34   62 1
  67   35   63 1
  68   35   64 1

#	End of record

