#	Name: ASD02500704
#	Creating user name:	WinNT
#	Creation time:	15. 06. 2019 20:23

#	Modifying user name:	WinNT
#	Modification time:	15. 06. 2019 20:23

#	Program:	/corina/corina34_cracker 3.40 0067  02.08.2006

@<TRIPOS>MOLECULE
ASD02500704
  68   72    0    0    0
SMALL
NO_CHARGES


@<TRIPOS>ATOM
   1 N1            -3.3673     5.5887    -0.4884 N.ar    
   2 C2            -4.4874     6.2303    -0.7162 C.ar    
   3 C3            -5.6047     6.0676     0.1003 C.ar    
   4 C4            -5.5495     5.2209     1.1705 C.ar    
   5 C5            -4.3450     4.5332     1.4118 C.ar    
   6 C6            -4.2130     3.6470     2.4925 C.ar    
   7 C7            -3.0311     3.0009     2.6925 C.ar    
   8 C8            -1.9499     3.2080     1.8386 C.ar    
   9 C9            -2.0430     4.0600     0.7813 C.ar    
  10 C10           -3.2466     4.7454     0.5419 C.ar    
  11 S11           -0.6598     4.3037    -0.2826 S.o2    
  12 O12           -0.4927     5.7093    -0.4078 O.2     
  13 O13            0.3647     3.4380     0.1866 O.2     
  14 N14           -1.0909     3.7486    -1.7820 N.am    
  15 C15           -1.3173     2.3889    -1.9828 C.ar    
  16 C16           -0.9878     1.8004    -3.2056 C.ar    
  17 C17           -1.2119     0.4535    -3.4052 C.ar    
  18 C18           -1.7689    -0.3192    -2.3812 C.ar    
  19 C19           -2.0965     0.2752    -1.1600 C.ar    
  20 C20           -1.8657     1.6190    -0.9636 C.ar    
  21 C21           -2.0106    -1.7594    -2.5904 C.2     
  22 O22           -2.4432    -2.1548    -3.6558 O.2     
  23 N23           -1.7520    -2.6368    -1.6006 N.am    
  24 C24           -1.8952    -4.0843    -1.8185 C.3     
  25 C25           -0.6053    -4.7751    -1.3633 C.3     
  26 N26           -0.3048    -4.3819     0.0198 N.3     
  27 C27           -0.0518    -2.9383     0.1203 C.3     
  28 C28           -1.3131    -2.1726    -0.2758 C.3     
  29 C29            0.8264    -5.1530     0.5524 C.3     
  30 C30            1.2261    -4.5941     1.9194 C.3     
  31 C31            0.4248    -6.5981     0.6984 C.ar    
  32 C32            1.3393    -7.5999     0.4320 C.ar    
  33 C33            0.9709    -8.9256     0.5659 C.ar    
  34 C34           -0.3118    -9.2494     0.9667 C.ar    
  35 C35           -1.2260    -8.2476     1.2341 C.ar    
  36 C36           -0.8563    -6.9219     1.1043 C.ar    
  37 O37           -0.4467     2.5547    -4.1997 O.3     
  38 C38           -0.1342     1.8870    -5.4238 C.3     
  39 H39           -4.5457     6.9032    -1.5589 H       
  40 H40           -6.5135     6.6109    -0.1128 H       
  41 H41           -6.4058     5.0831     1.8139 H       
  42 H42           -5.0439     3.4788     3.1617 H       
  43 H43           -2.9304     2.3193     3.5242 H       
  44 H44           -1.0227     2.6842     2.0188 H       
  45 H45           -1.1856     4.3703    -2.5206 H       
  46 H46           -0.9579    -0.0029    -4.3504 H       
  47 H47           -2.5268    -0.3200    -0.3681 H       
  48 H48           -2.1153     2.0761    -0.0175 H       
  49 H49           -2.7369    -4.4606    -1.2370 H       
  50 H50           -2.0615    -4.2805    -2.8777 H       
  51 H51           -0.7342    -5.8562    -1.4143 H       
  52 H52            0.2167    -4.4754    -2.0134 H       
  53 H53            0.2208    -2.6874     1.1455 H       
  54 H54            0.7625    -2.6642    -0.5504 H       
  55 H55           -1.0947    -1.1054    -0.3156 H       
  56 H56           -2.0977    -2.3616     0.4568 H       
  57 H57            1.6715    -5.0781    -0.1319 H       
  58 H58            2.0654    -5.1663     2.3146 H       
  59 H59            1.5165    -3.5488     1.8138 H       
  60 H60            0.3810    -4.6690     2.6038 H       
  61 H61            2.3415    -7.3470     0.1188 H       
  62 H62            1.6852    -9.7083     0.3570 H       
  63 H63           -0.5998   -10.2851     1.0706 H       
  64 H64           -2.2283    -8.5006     1.5469 H       
  65 H65           -1.5695    -6.1391     1.3168 H       
  66 H66            0.5886     1.0942    -5.2311 H       
  67 H67           -1.0426     1.4559    -5.8447 H       
  68 H68            0.2896     2.6014    -6.1295 H       
@<TRIPOS>BOND
   1    1    2 ar
   2    1   10 ar
   3    2    3 ar
   4    2   39 1
   5    3    4 ar
   6    3   40 1
   7    4    5 ar
   8    4   41 1
   9    5    6 ar
  10    5   10 ar
  11    6    7 ar
  12    6   42 1
  13    7    8 ar
  14    7   43 1
  15    8    9 ar
  16    8   44 1
  17    9   10 ar
  18    9   11 1
  19   11   12 2
  20   11   13 2
  21   11   14 am
  22   14   15 1
  23   14   45 1
  24   15   16 ar
  25   15   20 ar
  26   16   17 ar
  27   16   37 1
  28   17   18 ar
  29   17   46 1
  30   18   19 ar
  31   18   21 1
  32   19   20 ar
  33   19   47 1
  34   20   48 1
  35   21   22 2
  36   21   23 am
  37   23   24 1
  38   23   28 1
  39   24   25 1
  40   24   49 1
  41   24   50 1
  42   25   26 1
  43   25   51 1
  44   25   52 1
  45   26   27 1
  46   26   29 1
  47   27   28 1
  48   27   53 1
  49   27   54 1
  50   28   55 1
  51   28   56 1
  52   29   30 1
  53   29   31 1
  54   29   57 1
  55   30   58 1
  56   30   59 1
  57   30   60 1
  58   31   32 ar
  59   31   36 ar
  60   32   33 ar
  61   32   61 1
  62   33   34 ar
  63   33   62 1
  64   34   35 ar
  65   34   63 1
  66   35   36 ar
  67   35   64 1
  68   36   65 1
  69   37   38 1
  70   38   66 1
  71   38   67 1
  72   38   68 1

#	End of record

