#	Name: ASD01890354
#	Creating user name:	WinNT
#	Creation time:	15. 06. 2019 19:50

#	Modifying user name:	WinNT
#	Modification time:	15. 06. 2019 19:50

#	Program:	/corina/corina34_cracker 3.40 0067  02.08.2006

@<TRIPOS>MOLECULE
ASD01890354
  37   40    0    0    0
SMALL
NO_CHARGES


@<TRIPOS>ATOM
   1 C1            -0.0166     1.3723     0.0096 C.ar    
   2 C2             0.0021    -0.0041     0.0020 C.ar    
   3 C3             1.2224    -0.6826    -0.0138 C.ar    
   4 C4             2.4225     0.0504    -0.0207 C.ar    
   5 C5             2.3832     1.4370    -0.0128 C.ar    
   6 C6             1.1696     2.0914     0.0021 C.ar    
   7 N7             1.5562    -2.0027    -0.0270 N.2     
   8 C8             2.8426    -2.1297    -0.0442 C.2     
   9 N9             3.4338    -0.8863    -0.0351 N.am    
  10 C10            3.6507    -3.4079    -0.0777 C.3     
  11 C11            5.0050    -3.0874    -0.7246 C.3     
  12 C12            5.6662    -1.9185     0.0073 C.3     
  13 C13            4.7689    -0.7043    -0.0348 C.2     
  14 O14            5.2389     0.4084    -0.0672 O.2     
  15 C15            5.8979    -4.2987    -0.6434 C.ar    
  16 C16            6.3823    -4.8788    -1.8009 C.ar    
  17 C17            7.2013    -5.9897    -1.7270 C.ar    
  18 C18            7.5363    -6.5211    -0.4943 C.ar    
  19 C19            7.0512    -5.9400     0.6638 C.ar    
  20 C20            6.2369    -4.8258     0.5888 C.ar    
  21 Cl21           8.5645    -7.9167    -0.4008 Cl      
  22 C22            1.1317     3.5979     0.0104 C.3     
  23 H23           -0.9612     1.8959     0.0169 H       
  24 H24           -0.9251    -0.5579     0.0087 H       
  25 H25            3.3026     2.0036    -0.0179 H       
  26 H26            3.8037    -3.7748     0.9373 H       
  27 H27            3.1278    -4.1601    -0.6683 H       
  28 H28            4.8527    -2.8205    -1.7704 H       
  29 H29            5.8475    -2.1980     1.0451 H       
  30 H30            6.6161    -1.6826    -0.4726 H       
  31 H31            6.1205    -4.4641    -2.7631 H       
  32 H32            7.5794    -6.4431    -2.6314 H       
  33 H33            7.3124    -6.3544     1.6263 H       
  34 H34            5.8581    -4.3721     1.4928 H       
  35 H35            1.1128     3.9666    -1.0152 H       
  36 H36            0.2377     3.9360     0.5345 H       
  37 H37            2.0170     3.9809     0.5179 H       
@<TRIPOS>BOND
   1    1    2 ar
   2    1    6 ar
   3    1   23 1
   4    2    3 ar
   5    2   24 1
   6    3    4 ar
   7    3    7 1
   8    4    5 ar
   9    4    9 1
  10    5    6 ar
  11    5   25 1
  12    6   22 1
  13    7    8 2
  14    8    9 1
  15    8   10 1
  16    9   13 am
  17   10   11 1
  18   10   26 1
  19   10   27 1
  20   11   12 1
  21   11   15 1
  22   11   28 1
  23   12   13 1
  24   12   29 1
  25   12   30 1
  26   13   14 2
  27   15   16 ar
  28   15   20 ar
  29   16   17 ar
  30   16   31 1
  31   17   18 ar
  32   17   32 1
  33   18   19 ar
  34   18   21 1
  35   19   20 ar
  36   19   33 1
  37   20   34 1
  38   22   35 1
  39   22   36 1
  40   22   37 1

#	End of record

