#	Name: ASD01208635
#	Creating user name:	WinNT
#	Creation time:	15. 06. 2019 19:10

#	Modifying user name:	WinNT
#	Modification time:	15. 06. 2019 19:10

#	Program:	/corina/corina34_cracker 3.40 0067  02.08.2006

@<TRIPOS>MOLECULE
ASD01208635
  33   34    0    0    0
SMALL
NO_CHARGES


@<TRIPOS>ATOM
   1 C1            -0.0167     1.3781     0.0096 C.ar    
   2 C2             0.0021    -0.0041     0.0020 C.ar    
   3 C3             1.2213    -0.6632    -0.0132 C.ar    
   4 C4             2.3826     0.0966    -0.0203 C.ar    
   5 C5             2.2848     1.4762    -0.0119 C.ar    
   6 N6             1.1067     2.0685     0.0026 N.ar    
   7 S7            -1.5603     2.2276     0.0215 S.o2    
   8 O8            -1.8443     2.5628    -1.3299 O.2     
   9 O9            -2.4366     1.4562     0.8316 O.2     
  10 N10           -1.3255     3.6598     0.8191 N.am    
  11 C11           -0.4339     4.6754     0.2538 C.3     
  12 C12           -0.6692     5.9926     0.9472 C.ar    
  13 C13            0.0569     6.3165     2.0783 C.ar    
  14 C14           -0.1569     7.5233     2.7158 C.ar    
  15 C15           -1.1013     8.4105     2.2201 C.ar    
  16 C16           -1.8286     8.0831     1.0849 C.ar    
  17 C17           -1.6069     6.8775     0.4479 C.ar    
  18 O18           -1.3138     9.5981     2.8456 O.3     
  19 C19           -2.3014    10.4619     2.2794 C.3     
  20 Cl20           3.9378    -0.6746    -0.0387 Cl      
  21 H21           -0.9218    -0.5634     0.0082 H       
  22 H22            1.2664    -1.7422    -0.0191 H       
  23 H23            3.1835     2.0751    -0.0173 H       
  24 H24           -1.7784     3.8262     1.6606 H       
  25 H25            0.6024     4.3695     0.3971 H       
  26 H26           -0.6365     4.7844    -0.8116 H       
  27 H27            0.7917     5.6253     2.4641 H       
  28 H28            0.4103     7.7757     3.5995 H       
  29 H29           -2.5643     8.7721     0.6971 H       
  30 H30           -2.1695     6.6242    -0.4386 H       
  31 H31           -3.2670     9.9563     2.2751 H       
  32 H32           -2.3710    11.3729     2.8738 H       
  33 H33           -2.0194    10.7155     1.2575 H       
@<TRIPOS>BOND
   1    1    2 ar
   2    1    6 ar
   3    1    7 1
   4    2    3 ar
   5    2   21 1
   6    3    4 ar
   7    3   22 1
   8    4    5 ar
   9    4   20 1
  10    5    6 ar
  11    5   23 1
  12    7    8 2
  13    7    9 2
  14    7   10 am
  15   10   11 1
  16   10   24 1
  17   11   12 1
  18   11   25 1
  19   11   26 1
  20   12   13 ar
  21   12   17 ar
  22   13   14 ar
  23   13   27 1
  24   14   15 ar
  25   14   28 1
  26   15   16 ar
  27   15   18 1
  28   16   17 ar
  29   16   29 1
  30   17   30 1
  31   18   19 1
  32   19   31 1
  33   19   32 1
  34   19   33 1

#	End of record

