#	Name: ASD03430199
#	Creating user name:	WinNT
#	Creation time:	15. 06. 2019 20:40

#	Modifying user name:	WinNT
#	Modification time:	15. 06. 2019 20:40

#	Program:	/corina/corina34_cracker 3.40 0067  02.08.2006

@<TRIPOS>MOLECULE
ASD03430199
  64   70    0    0    0
SMALL
NO_CHARGES


@<TRIPOS>ATOM
   1 C1            -0.1262     1.3799     0.0945 C.ar    
   2 C2            -1.3120     2.0818     0.0895 C.ar    
   3 C3            -2.5144     1.4078     0.0965 C.ar    
   4 C4            -2.5411     0.0152     0.1192 C.ar    
   5 C5            -1.3412    -0.6850     0.1161 C.ar    
   6 C6            -0.1262    -0.0094     0.1006 C.ar    
   7 O7            -3.8217    -0.4516     0.1547 O.3     
   8 C8            -3.9476     1.8652     0.0704 C.3     
   9 C9            -4.7186     0.5862    -0.2851 C.3     
  10 C10           -4.8255     3.7315     1.1034 C.ar    
  11 C11           -4.3904     2.4383     1.3837 C.ar    
  12 C12           -4.1797     2.9540    -0.9376 C.2     
  13 N13           -4.6898     4.0018    -0.2604 N.am    
  14 O14           -3.9526     2.9009    -2.1278 O.2     
  15 C15           -4.4315     1.9491     2.6698 C.ar    
  16 C16           -4.9076     2.7428     3.6987 C.ar    
  17 C17           -5.3417     4.0281     3.4319 C.ar    
  18 C18           -5.3028     4.5230     2.1446 C.ar    
  19 C19           -5.0598     5.2755    -0.8824 C.3     
  20 C20            1.3229     1.8257     0.1012 C.3     
  21 C21            2.0553     0.5258     0.5099 C.3     
  22 O22            1.1441    -0.5007     0.0821 O.3     
  23 C23           -3.8738     6.2052    -0.8673 C.ar    
  24 C24           -2.9874     6.2080    -1.9296 C.ar    
  25 C25           -1.8999     7.0569    -1.9223 C.ar    
  26 C26           -1.6950     7.9142    -0.8400 C.ar    
  27 C27           -2.5932     7.9063     0.2286 C.ar    
  28 C28           -3.6794     7.0562     0.2062 C.ar    
  29 C29           -0.5317     8.8261    -0.8252 C.2     
  30 N30           -0.3367     9.6526     0.2214 N.am    
  31 O31            0.2490     8.8305    -1.7569 O.2     
  32 C32            0.8079    10.4544     0.2753 C.ar    
  33 C33            1.3015    10.8813     1.5016 C.ar    
  34 C34            2.4321    11.6725     1.5514 C.ar    
  35 C35            3.0730    12.0399     0.3821 C.ar    
  36 C36            2.5839    11.6171    -0.8401 C.ar    
  37 C37            1.4567    10.8207    -0.8966 C.ar    
  38 C38            0.6036    10.4818     2.7761 C.3     
  39 F39            1.2823    11.0286     3.8705 F       
  40 F40           -0.7114    10.9590     2.7570 F       
  41 F41            0.5921     9.0870     2.8840 F       
  42 H42           -1.2992     3.1617     0.0804 H       
  43 H43           -1.3524    -1.7649     0.1262 H       
  44 H44           -4.8873     0.5221    -1.3601 H       
  45 H45           -5.6618     0.5390     0.2593 H       
  46 H46           -4.0921     0.9447     2.8760 H       
  47 H47           -4.9402     2.3590     4.7077 H       
  48 H48           -5.7134     4.6475     4.2349 H       
  49 H49           -5.6435     5.5280     1.9440 H       
  50 H50           -5.3709     5.1002    -1.9122 H       
  51 H51           -5.8818     5.7262    -0.3262 H       
  52 H52            1.6343     2.1529    -0.8908 H       
  53 H53            1.4851     2.6124     0.8380 H       
  54 H54            3.0079     0.4387    -0.0126 H       
  55 H55            2.2008     0.4876     1.5894 H       
  56 H56           -3.1469     5.5439    -2.7663 H       
  57 H57           -1.2085     7.0579    -2.7520 H       
  58 H58           -2.4401     8.5669     1.0692 H       
  59 H59           -4.3753     7.0493     1.0321 H       
  60 H60           -0.9902     9.6914     0.9372 H       
  61 H61            2.8162    12.0050     2.5044 H       
  62 H62            3.9571    12.6588     0.4238 H       
  63 H63            3.0865    11.9060    -1.7513 H       
  64 H64            1.0752    10.4908    -1.8515 H       
@<TRIPOS>BOND
   1    1    6 ar
   2    1   20 1
   3    1    2 ar
   4    2    3 ar
   5    2   42 1
   6    3    4 ar
   7    3    8 1
   8    4    5 ar
   9    4    7 1
  10    5    6 ar
  11    5   43 1
  12    6   22 1
  13    7    9 1
  14    8    9 1
  15    8   11 1
  16    8   12 1
  17    9   44 1
  18    9   45 1
  19   10   11 ar
  20   10   13 1
  21   10   18 ar
  22   11   15 ar
  23   12   13 am
  24   12   14 2
  25   13   19 1
  26   15   16 ar
  27   15   46 1
  28   16   17 ar
  29   16   47 1
  30   17   18 ar
  31   17   48 1
  32   18   49 1
  33   19   23 1
  34   19   50 1
  35   19   51 1
  36   20   21 1
  37   20   52 1
  38   20   53 1
  39   21   22 1
  40   21   54 1
  41   21   55 1
  42   23   24 ar
  43   23   28 ar
  44   24   25 ar
  45   24   56 1
  46   25   26 ar
  47   25   57 1
  48   26   27 ar
  49   26   29 1
  50   27   28 ar
  51   27   58 1
  52   28   59 1
  53   29   30 am
  54   29   31 2
  55   30   32 1
  56   30   60 1
  57   32   33 ar
  58   32   37 ar
  59   33   34 ar
  60   33   38 1
  61   34   35 ar
  62   34   61 1
  63   35   36 ar
  64   35   62 1
  65   36   37 ar
  66   36   63 1
  67   37   64 1
  68   38   39 1
  69   38   40 1
  70   38   41 1

#	End of record

