#	Name: ASD03240149
#	Creating user name:	WinNT
#	Creation time:	15. 06. 2019 20:34

#	Modifying user name:	WinNT
#	Modification time:	15. 06. 2019 20:34

#	Program:	/corina/corina34_cracker 3.40 0067  02.08.2006

@<TRIPOS>MOLECULE
ASD03240149
  72   78    0    0    0
SMALL
NO_CHARGES


@<TRIPOS>ATOM
   1 C1            -0.0168     1.3908     0.0097 C.ar    
   2 C2             0.0021    -0.0041     0.0020 C.ar    
   3 C3             1.1925     2.0897     0.0019 C.ar    
   4 C4             2.3781     1.3579    -0.0134 C.ar    
   5 C5             2.3110    -0.0454    -0.0203 C.ar    
   6 N6             1.1390    -0.6662    -0.0120 N.ar    
   7 C7             3.5613    -0.8394    -0.0365 C.ar    
   8 C8             3.6897     2.0491    -0.0227 C.ar    
   9 C9             3.9383     3.0656    -0.9436 C.ar    
  10 C10            5.1610     3.7055    -0.9476 C.ar    
  11 C11            6.1391     3.3396    -0.0404 C.ar    
  12 C12            5.8980     2.3316     0.8758 C.ar    
  13 C13            4.6769     1.6890     0.8933 C.ar    
  14 C14            3.6293    -2.0525     0.6483 C.ar    
  15 C15            4.7969    -2.7876     0.6295 C.ar    
  16 C16            5.8986    -2.3235    -0.0667 C.ar    
  17 C17            5.8374    -1.1209    -0.7478 C.ar    
  18 C18            4.6736    -0.3796    -0.7412 C.ar    
  19 C19            7.1709    -3.1310    -0.0827 C.3     
  20 C20           -1.3062     2.1233     0.0198 C.ar    
  21 N21            7.1480    -4.0584    -1.2218 N.3     
  22 C22            8.4594    -4.6912    -1.4116 C.3     
  23 C23            8.4399    -5.5354    -2.6880 C.3     
  24 C24            7.3491    -6.6035    -2.5711 C.3     
  25 C25            6.0010    -5.9202    -2.3255 C.3     
  26 C26            6.0911    -5.0649    -1.0597 C.3     
  27 N27            7.2866    -7.3775    -3.8134 N.pl3   
  28 C28            7.4865    -8.7215    -3.9162 C.ar    
  29 C29            7.3342    -9.0501    -5.2815 C.ar    
  30 C30            7.0307    -7.8034    -5.9724 C.2     
  31 N31            7.0063    -6.8542    -5.0802 N.2     
  32 N32            7.7713    -9.6941    -3.0550 N.ar    
  33 C33            7.9072   -10.9340    -3.4703 C.ar    
  34 N34            7.7721   -11.2799    -4.7395 N.ar    
  35 C35            7.4894   -10.3837    -5.6682 C.ar    
  36 C36            7.3376   -10.7905    -7.1113 C.3     
  37 C37           -2.5018     1.4160     0.1271 C.ar    
  38 C38           -3.6974     2.1135     0.1357 C.ar    
  39 C39           -3.6579     3.4969     0.0365 C.ar    
  40 C40           -2.4353     4.1349    -0.0672 C.ar    
  41 N41           -1.3115     3.4474    -0.0679 N.ar    
  42 H42           -0.9305    -0.5487     0.0080 H       
  43 H43            1.2082     3.1696     0.0072 H       
  44 H44            3.1757     3.3516    -1.6528 H       
  45 H45            5.3548     4.4931    -1.6607 H       
  46 H46            7.0948     3.8426    -0.0476 H       
  47 H47            6.6653     2.0502     1.5818 H       
  48 H48            4.4896     0.9024     1.6092 H       
  49 H49            2.7699    -2.4157     1.1924 H       
  50 H50            4.8509    -3.7270     1.1596 H       
  51 H51            6.7008    -0.7636    -1.2892 H       
  52 H52            4.6268     0.5589    -1.2736 H       
  53 H53            8.0254    -2.4609    -0.1769 H       
  54 H54            7.2537    -3.6971     0.8451 H       
  55 H55            9.2255    -3.9207    -1.4975 H       
  56 H56            8.6814    -5.3302    -0.5569 H       
  57 H57            8.2316    -4.8947    -3.5448 H       
  58 H58            9.4086    -6.0174    -2.8203 H       
  59 H59            7.5777    -7.2680    -1.7379 H       
  60 H60            5.7542    -5.2856    -3.1767 H       
  61 H61            5.2270    -6.6772    -2.1989 H       
  62 H62            6.3242    -5.7022    -0.2067 H       
  63 H63            5.1371    -4.5657    -0.8899 H       
  64 H64            6.8535    -7.6879    -7.0314 H       
  65 H65            8.1389   -11.7008    -2.7459 H       
  66 H66            6.2972   -11.0489    -7.3084 H       
  67 H67            7.6347    -9.9628    -7.7554 H       
  68 H68            7.9711   -11.6541    -7.3139 H       
  69 H69           -2.4958     0.3386     0.2022 H       
  70 H70           -4.6400     1.5926     0.2173 H       
  71 H71           -4.5732     4.0701     0.0400 H       
  72 H72           -2.4011     5.2115    -0.1449 H       
@<TRIPOS>BOND
   1    1    2 ar
   2    1    3 ar
   3    1   20 1
   4    2    6 ar
   5    2   42 1
   6    3    4 ar
   7    3   43 1
   8    4    5 ar
   9    4    8 1
  10    5    6 ar
  11    5    7 1
  12    7   14 ar
  13    7   18 ar
  14    8    9 ar
  15    8   13 ar
  16    9   10 ar
  17    9   44 1
  18   10   11 ar
  19   10   45 1
  20   11   12 ar
  21   11   46 1
  22   12   13 ar
  23   12   47 1
  24   13   48 1
  25   14   15 ar
  26   14   49 1
  27   15   16 ar
  28   15   50 1
  29   16   17 ar
  30   16   19 1
  31   17   18 ar
  32   17   51 1
  33   18   52 1
  34   19   21 1
  35   19   53 1
  36   19   54 1
  37   20   37 ar
  38   20   41 ar
  39   21   22 1
  40   21   26 1
  41   22   23 1
  42   22   55 1
  43   22   56 1
  44   23   24 1
  45   23   57 1
  46   23   58 1
  47   24   25 1
  48   24   27 1
  49   24   59 1
  50   25   26 1
  51   25   60 1
  52   25   61 1
  53   26   62 1
  54   26   63 1
  55   27   28 1
  56   27   31 1
  57   28   29 ar
  58   28   32 ar
  59   29   30 1
  60   29   35 ar
  61   30   31 2
  62   30   64 1
  63   32   33 ar
  64   33   34 ar
  65   33   65 1
  66   34   35 ar
  67   35   36 1
  68   36   66 1
  69   36   67 1
  70   36   68 1
  71   37   38 ar
  72   37   69 1
  73   38   39 ar
  74   38   70 1
  75   39   40 ar
  76   39   71 1
  77   40   41 ar
  78   40   72 1

#	End of record

