#	Name: ASD01811216
#	Creating user name:	WinNT
#	Creation time:	15. 06. 2019 19:26

#	Modifying user name:	WinNT
#	Modification time:	15. 06. 2019 19:26

#	Program:	/corina/corina34_cracker 3.40 0067  02.08.2006

@<TRIPOS>MOLECULE
ASD01811216
  63   66    0    0    0
SMALL
NO_CHARGES


@<TRIPOS>ATOM
   1 C1             0.1384     1.6823     0.8762 C.2     
   2 N2             0.1036     0.3751     1.0402 N.2     
   3 C3             1.3227    -0.1311     0.8801 C.2     
   4 C4             2.1819     0.9092     0.5987 C.2     
   5 N5             1.4144     2.0593     0.5993 N.pl3   
   6 C6             3.6240     0.8151     0.3490 C.2     
   7 O7             4.2000    -0.2460     0.5018 O.2     
   8 N8             4.3113     1.9037    -0.0499 N.am    
   9 C9             5.7681     1.8391    -0.1909 C.3     
  10 C10            3.6016     3.1515    -0.3423 C.3     
  11 C11           -1.0238     2.5910     0.9717 C.ar    
  12 C12           -2.3099     2.0685     1.1290 C.ar    
  13 C13           -3.3963     2.9157     1.2184 C.ar    
  14 C14           -3.2201     4.2839     1.1531 C.ar    
  15 C15           -1.9399     4.8195     0.9965 C.ar    
  16 C16           -0.8385     3.9704     0.9109 C.ar    
  17 C17           -4.4120     5.2008     1.2506 C.3     
  18 C18           -2.5118     0.5768     1.2008 C.3     
  19 C19           -1.7532     6.2847     0.9268 C.2     
  20 O20           -2.2426     7.0009     1.7782 O.2     
  21 N21           -1.0403     6.8260    -0.0807 N.am    
  22 C22           -0.7451     8.2651    -0.1000 C.3     
  23 C23           -1.2053     8.8449    -1.4412 C.3     
  24 C24           -0.5595     8.0555    -2.5822 C.3     
  25 C25           -1.0056     6.5934    -2.5095 C.3     
  26 C26           -0.5383     5.9871    -1.1776 C.3     
  27 C27           -0.9832     8.6446    -3.9030 C.ar    
  28 C28           -0.0291     9.1414    -4.7732 C.ar    
  29 C29           -0.4099     9.6820    -5.9839 C.ar    
  30 C30           -1.7618     9.7268    -6.3304 C.ar    
  31 C31           -2.7193     9.2232    -5.4476 C.ar    
  32 C32           -2.3241     8.6810    -4.2423 C.ar    
  33 C33           -2.1645    10.2870    -7.5853 C.1     
  34 N34           -2.4839    10.7314    -8.5807 N.1     
  35 H35            1.5923    -1.1740     0.9573 H       
  36 H36            1.7268     2.9625     0.4333 H       
  37 H37            6.0285     1.0789    -0.9273 H       
  38 H38            6.1445     2.8077    -0.5199 H       
  39 H39            6.2151     1.5827     0.7696 H       
  40 H40            3.4488     3.7079     0.5824 H       
  41 H41            4.1924     3.7519    -1.0341 H       
  42 H42            2.6357     2.9231    -0.7929 H       
  43 H43           -4.3884     2.5066     1.3396 H       
  44 H44            0.1541     4.3796     0.7935 H       
  45 H45           -4.6343     5.3976     2.2994 H       
  46 H46           -4.1903     6.1400     0.7438 H       
  47 H47           -5.2736     4.7282     0.7791 H       
  48 H48           -2.3328     0.2346     2.2201 H       
  49 H49           -3.5340     0.3342     0.9103 H       
  50 H50           -1.8148     0.0828     0.5239 H       
  51 H51           -1.2775     8.7583     0.7132 H       
  52 H52            0.3277     8.4197     0.0160 H       
  53 H53           -2.2902     8.7713    -1.5163 H       
  54 H54           -0.9058     9.8909    -1.5074 H       
  55 H55            0.5255     8.1091    -2.4923 H       
  56 H56           -2.0923     6.5409    -2.5746 H       
  57 H57           -0.5639     6.0367    -3.3361 H       
  58 H58            0.5510     5.9597    -1.1476 H       
  59 H59           -0.9342     4.9767    -1.0755 H       
  60 H60            1.0162     9.1061    -4.5039 H       
  61 H61            0.3358    10.0700    -6.6619 H       
  62 H62           -3.7666     9.2548    -5.7095 H       
  63 H63           -3.0633     8.2875    -3.5603 H       
@<TRIPOS>BOND
   1    1    2 2
   2    1    5 1
   3    1   11 1
   4    2    3 1
   5    3    4 2
   6    3   35 1
   7    4    5 1
   8    4    6 1
   9    5   36 1
  10    6    7 2
  11    6    8 am
  12    8    9 1
  13    8   10 1
  14    9   37 1
  15    9   38 1
  16    9   39 1
  17   10   40 1
  18   10   41 1
  19   10   42 1
  20   11   12 ar
  21   11   16 ar
  22   12   13 ar
  23   12   18 1
  24   13   14 ar
  25   13   43 1
  26   14   15 ar
  27   14   17 1
  28   15   16 ar
  29   15   19 1
  30   16   44 1
  31   17   45 1
  32   17   46 1
  33   17   47 1
  34   18   48 1
  35   18   49 1
  36   18   50 1
  37   19   20 2
  38   19   21 am
  39   21   22 1
  40   21   26 1
  41   22   23 1
  42   22   51 1
  43   22   52 1
  44   23   24 1
  45   23   53 1
  46   23   54 1
  47   24   25 1
  48   24   27 1
  49   24   55 1
  50   25   26 1
  51   25   56 1
  52   25   57 1
  53   26   58 1
  54   26   59 1
  55   27   28 ar
  56   27   32 ar
  57   28   29 ar
  58   28   60 1
  59   29   30 ar
  60   29   61 1
  61   30   31 ar
  62   30   33 1
  63   31   32 ar
  64   31   62 1
  65   32   63 1
  66   33   34 3

#	End of record

