#	Name: ASD01916954
#	Creating user name:	WinNT
#	Creation time:	15. 06. 2019 20:08

#	Modifying user name:	WinNT
#	Modification time:	15. 06. 2019 20:08

#	Program:	/corina/corina34_cracker 3.40 0067  02.08.2006

@<TRIPOS>MOLECULE
ASD01916954
  64   68    0    0    0
SMALL
NO_CHARGES


@<TRIPOS>ATOM
   1 C1            -0.0028     1.3472     0.1637 C.ar    
   2 C2             0.0295    -0.0122     0.4293 C.ar    
   3 C3             1.2428    -0.6646     0.5769 C.ar    
   4 C4             2.4247     0.0376     0.4597 C.ar    
   5 C5             2.3968     1.4049     0.1925 C.ar    
   6 C6             1.1743     2.0571     0.0449 C.ar    
   7 C7             3.6654     2.1644     0.0661 C.2     
   8 N8             4.8944     1.6503     0.1869 N.2     
   9 N9             3.7637     3.4514    -0.1886 N.2     
  10 N10            5.1337     3.7577    -0.2226 N.pl3   
  11 C11            5.7910     2.5992     0.0174 C.2     
  12 C12            7.2594     2.4290     0.0784 C.ar    
  13 C13            5.7332     5.0708    -0.4731 C.3     
  14 C14            5.8628     5.8202     0.8280 C.2     
  15 O15            5.4911     5.3079     1.8625 O.2     
  16 N16            6.3919     7.0597     0.8419 N.am    
  17 C17            6.5275     7.8085     2.1005 C.3     
  18 C18            7.9700     8.3132     2.2136 C.3     
  19 N19            8.3181     9.0670     1.0017 N.3     
  20 C20            8.2786     8.2084    -0.1896 C.3     
  21 C21            6.8544     7.6970    -0.4003 C.3     
  22 C22            9.5598     9.6781     1.1345 C.ar    
  23 C23            8.0834     3.5331     0.2985 C.ar    
  24 C24            9.4517     3.3692     0.3545 C.ar    
  25 C25           10.0084     2.1105     0.1922 C.ar    
  26 C26            9.1942     1.0106    -0.0271 C.ar    
  27 C27            7.8244     1.1629    -0.0782 C.ar    
  28 F28           11.3493     1.9552     0.2475 F       
  29 F29           -1.1254    -0.7035     0.5453 F       
  30 N30           10.2506     9.5233     2.2548 N.ar    
  31 C31           10.0661    10.4396     0.0900 C.ar    
  32 C32           11.3100    11.0450     0.2377 C.ar    
  33 C33           12.0000    10.8592     1.4380 C.ar    
  34 C34           11.4339    10.0845     2.4262 C.ar    
  35 N35           11.8538    11.8163    -0.7856 N.pl3   
  36 C36           11.1148    11.9988    -2.0372 C.3     
  37 C37           13.1652    12.4456    -0.6107 C.3     
  38 H38           -0.9507     1.8510     0.0449 H       
  39 H39            1.2636    -1.7243     0.7843 H       
  40 H40            3.3701    -0.4716     0.5751 H       
  41 H41            1.1483     3.1166    -0.1625 H       
  42 H42            6.7199     4.9409    -0.9175 H       
  43 H43            5.0986     5.6356    -1.1560 H       
  44 H44            5.8422     8.6561     2.0980 H       
  45 H45            6.3016     7.1538     2.9422 H       
  46 H46            8.0610     8.9624     3.0844 H       
  47 H47            8.6451     7.4641     2.3202 H       
  48 H48            8.5934     8.7816    -1.0616 H       
  49 H49            8.9494     7.3608    -0.0495 H       
  50 H50            6.8427     6.9705    -1.2128 H       
  51 H51            6.1975     8.5324    -0.6429 H       
  52 H52            7.6506     4.5146     0.4244 H       
  53 H53           10.0904     4.2233     0.5248 H       
  54 H54            9.6329     0.0318    -0.1533 H       
  55 H55            7.1908     0.3051    -0.2488 H       
  56 H56            9.5030    10.5600    -0.8237 H       
  57 H57           12.9682    11.3137     1.5876 H       
  58 H58           11.9629     9.9380     3.3563 H       
  59 H59           10.4784    12.8802    -1.9582 H       
  60 H60           11.8187    12.1315    -2.8588 H       
  61 H61           10.4974    11.1206    -2.2260 H       
  62 H62           13.9436    11.7656    -0.9569 H       
  63 H63           13.2054    13.3685    -1.1894 H       
  64 H64           13.3223    12.6710     0.4441 H       
@<TRIPOS>BOND
   1    1    2 ar
   2    1    6 ar
   3    1   38 1
   4    2    3 ar
   5    2   29 1
   6    3    4 ar
   7    3   39 1
   8    4    5 ar
   9    4   40 1
  10    5    6 ar
  11    5    7 1
  12    6   41 1
  13    7    8 1
  14    7    9 2
  15    8   11 2
  16    9   10 1
  17   10   11 1
  18   10   13 1
  19   11   12 1
  20   12   23 ar
  21   12   27 ar
  22   13   14 1
  23   13   42 1
  24   13   43 1
  25   14   15 2
  26   14   16 am
  27   16   17 1
  28   16   21 1
  29   17   18 1
  30   17   44 1
  31   17   45 1
  32   18   19 1
  33   18   46 1
  34   18   47 1
  35   19   20 1
  36   19   22 1
  37   20   21 1
  38   20   48 1
  39   20   49 1
  40   21   50 1
  41   21   51 1
  42   22   31 ar
  43   22   30 ar
  44   23   24 ar
  45   23   52 1
  46   24   25 ar
  47   24   53 1
  48   25   26 ar
  49   25   28 1
  50   26   27 ar
  51   26   54 1
  52   27   55 1
  53   30   34 ar
  54   31   32 ar
  55   31   56 1
  56   32   33 ar
  57   32   35 1
  58   33   34 ar
  59   33   57 1
  60   34   58 1
  61   35   36 1
  62   35   37 1
  63   36   59 1
  64   36   60 1
  65   36   61 1
  66   37   62 1
  67   37   63 1
  68   37   64 1

#	End of record

