#	Name: ASD01883535
#	Creating user name:	WinNT
#	Creation time:	15. 06. 2019 19:46

#	Modifying user name:	WinNT
#	Modification time:	15. 06. 2019 19:46

#	Program:	/corina/corina34_cracker 3.40 0067  02.08.2006

@<TRIPOS>MOLECULE
ASD01883535
  54   58    0    0    0
SMALL
NO_CHARGES


@<TRIPOS>ATOM
   1 C1            -0.0646     1.4689    -0.1095 C.2     
   2 C2             0.0168     0.0638    -0.2152 C.2     
   3 C3            -1.0992    -0.6835    -0.0869 C.2     
   4 N4            -2.3063    -0.1019     0.1436 N.am    
   5 C5            -2.4256     1.2344     0.2503 C.2     
   6 C6            -1.2982     2.0524     0.1307 C.2     
   7 O7            -3.5211     1.7335     0.4571 O.2     
   8 C8            -1.4247     3.5494     0.2497 C.3     
   9 N9             1.0693     2.2502    -0.2379 N.pl3   
  10 C10            1.1946     3.2121    -1.3414 C.3     
  11 C11            2.5066     2.9418    -2.0846 C.3     
  12 C12            3.6682     2.9731    -1.0885 C.3     
  13 C13            3.4725     1.8763    -0.0394 C.3     
  14 C14            2.1689     2.1384     0.7301 C.3     
  15 C15           -3.4975    -0.9440     0.2776 C.3     
  16 C16            4.9644     2.7414    -1.8215 C.ar    
  17 C17            5.9579     3.7020    -1.7893 C.ar    
  18 C18            7.1469     3.4894    -2.4616 C.ar    
  19 C19            7.3425     2.3160    -3.1657 C.ar    
  20 C20            6.3494     1.3550    -3.1972 C.ar    
  21 C21            5.1621     1.5657    -2.5212 C.ar    
  22 C22           -3.6860    -1.3310     1.7458 C.3     
  23 C23           -4.9464    -2.1167     2.1131 C.3     
  24 C24           -3.5852    -2.8152     2.1037 C.3     
  25 C25           -1.8882     4.1146     1.5938 C.3     
  26 C26           -0.4296     4.2724     1.1596 C.3     
  27 H27            0.9691    -0.4115    -0.3985 H       
  28 H28           -1.0329    -1.7584    -0.1687 H       
  29 H29           -1.7497     4.0669    -0.6529 H       
  30 H30            0.3553     3.0933    -2.0267 H       
  31 H31            1.2027     4.2266    -0.9427 H       
  32 H32            2.4607     1.9617    -2.5592 H       
  33 H33            2.6586     3.7080    -2.8449 H       
  34 H34            3.6983     3.9452    -0.5963 H       
  35 H35            3.4174     0.9061    -0.5333 H       
  36 H36            4.3118     1.8839     0.6559 H       
  37 H37            2.2594     3.0650     1.2970 H       
  38 H38            1.9729     1.3093     1.4099 H       
  39 H39           -4.3724    -0.3936    -0.0683 H       
  40 H40           -3.3746    -1.8454    -0.3229 H       
  41 H41            5.8051     4.6187    -1.2391 H       
  42 H42            7.9228     4.2402    -2.4370 H       
  43 H43            8.2712     2.1502    -3.6916 H       
  44 H44            6.5021     0.4384    -3.7476 H       
  45 H45            4.3861     0.8149    -2.5458 H       
  46 H46           -3.3119    -0.6109     2.4735 H       
  47 H47           -5.4013    -1.9138     3.0826 H       
  48 H48           -5.6414    -2.3579     1.3087 H       
  49 H49           -3.3846    -3.5158     1.2932 H       
  50 H50           -3.1445    -3.0717     3.0671 H       
  51 H51           -2.5178     5.0042     1.5755 H       
  52 H52           -2.1016     3.4037     2.3920 H       
  53 H53            0.3166     3.6653     1.6722 H       
  54 H54           -0.0996     5.2657     0.8556 H       
@<TRIPOS>BOND
   1    1    2 1
   2    1    9 1
   3    1    6 2
   4    2    3 2
   5    2   27 1
   6    3    4 1
   7    3   28 1
   8    4    5 am
   9    4   15 1
  10    5    6 1
  11    5    7 2
  12    6    8 1
  13    8   25 1
  14    8   26 1
  15    8   29 1
  16    9   10 1
  17    9   14 1
  18   10   11 1
  19   10   30 1
  20   10   31 1
  21   11   12 1
  22   11   32 1
  23   11   33 1
  24   12   13 1
  25   12   16 1
  26   12   34 1
  27   13   14 1
  28   13   35 1
  29   13   36 1
  30   14   37 1
  31   14   38 1
  32   15   22 1
  33   15   39 1
  34   15   40 1
  35   16   17 ar
  36   16   21 ar
  37   17   18 ar
  38   17   41 1
  39   18   19 ar
  40   18   42 1
  41   19   20 ar
  42   19   43 1
  43   20   21 ar
  44   20   44 1
  45   21   45 1
  46   22   23 1
  47   22   24 1
  48   22   46 1
  49   23   24 1
  50   23   47 1
  51   23   48 1
  52   24   49 1
  53   24   50 1
  54   25   26 1
  55   25   51 1
  56   25   52 1
  57   26   53 1
  58   26   54 1

#	End of record

