#	Name: ASD03240320
#	Creating user name:	WinNT
#	Creation time:	15. 06. 2019 20:34

#	Modifying user name:	WinNT
#	Modification time:	15. 06. 2019 20:34

#	Program:	/corina/corina34_cracker 3.40 0067  02.08.2006

@<TRIPOS>MOLECULE
ASD03240320
  91   97    0    0    0
SMALL
NO_CHARGES


@<TRIPOS>ATOM
   1 C1            -0.9153     0.3894    -1.9556 C.2     
   2 N2            -0.5337    -0.5865    -1.0656 N.pl3   
   3 O3            -4.1184     2.6972    -1.3367 O.2     
   4 C4            -3.9586     1.9031    -0.4341 C.2     
   5 C5            -2.8022     0.9377    -0.4758 C.3     
   6 N6            -2.0257     1.1583    -1.6983 N.pl3   
   7 N7            -0.2214     0.5893    -3.0406 N.2     
   8 N8            -4.8152     1.8839     0.6062 N.am    
   9 C9            -5.8162     2.8469     0.7015 C.ar    
  10 C10           -7.0629     2.5106     1.2496 C.ar    
  11 C11           -8.0588     3.4746     1.3432 C.ar    
  12 C12           -7.8129     4.7715     0.8915 C.ar    
  13 C13           -6.5669     5.0972     0.3466 C.ar    
  14 C14           -5.5782     4.1423     0.2590 C.ar    
  15 C15           -8.8677     5.7993     0.9883 C.2     
  16 N16           -8.6300     7.0521     0.5518 N.am    
  17 O17           -9.9513     5.5158     1.4617 O.2     
  18 C18           -9.6661     7.9945     0.5295 C.ar    
  19 C19           -9.3742     9.3495     0.6150 C.ar    
  20 C20          -10.9848     7.5740     0.4163 C.ar    
  21 C21          -12.0061     8.5027     0.3943 C.ar    
  22 C22          -11.7147     9.8576     0.4855 C.ar    
  23 C23          -10.3954    10.2784     0.5930 C.ar    
  24 N24          -12.7495    10.7988     0.4628 N.pl3   
  25 C25          -12.4420    12.2279     0.5589 C.3     
  26 C26          -14.1405    10.3552     0.3428 C.3     
  27 C27           -7.3170     1.1309     1.7269 C.ar    
  28 C28           -7.8508     0.9204     2.9990 C.ar    
  29 C29           -8.0872    -0.3605     3.4434 C.ar    
  30 C30           -7.7924    -1.4509     2.6199 C.ar    
  31 C31           -7.2578    -1.2388     1.3460 C.ar    
  32 C32           -7.0276     0.0433     0.9017 C.ar    
  33 C33          -14.7159    10.1291     1.7172 C.ar    
  34 C34          -12.2382    12.7920    -0.8235 C.ar    
  35 C35          -15.3341    11.1556     2.3622 C.ar    
  36 C36          -15.8723    10.9481     3.6438 C.ar    
  37 C37          -15.7619     9.6695     4.2449 C.ar    
  38 C38          -15.1161     8.6339     3.5480 C.ar    
  39 C39          -14.6120     8.8702     2.3062 C.ar    
  40 C40          -13.3027    13.2959    -1.5055 C.ar    
  41 C41          -13.1161    13.8232    -2.7948 C.ar    
  42 C42          -11.8187    13.8215    -3.3650 C.ar    
  43 C43          -10.7439    13.2920    -2.6304 C.ar    
  44 C44          -10.9613    12.7951    -1.3823 C.ar    
  45 C45          -14.1910    14.3518    -3.5299 C.ar    
  46 C46          -13.9725    14.8535    -4.7760 C.ar    
  47 C47          -12.6966    14.8515    -5.3369 C.ar    
  48 C48          -11.6320    14.3488    -4.6543 C.ar    
  49 C49          -16.5173    11.9838     4.3412 C.ar    
  50 C50          -17.0260    11.7460     5.5809 C.ar    
  51 C51          -16.9171    10.4886     6.1722 C.ar    
  52 C52          -16.3000     9.4618     5.5265 C.ar    
  53 C53           -8.0375    -2.7842     3.0813 C.1     
  54 N54           -8.2319    -3.8419     3.4473 N.1     
  55 H55            0.2519    -1.1263    -1.2451 H       
  56 H56           -1.0502    -0.7353    -0.2581 H       
  57 H57           -2.1643     1.0971     0.3936 H       
  58 H58           -3.1814    -0.0842    -0.4657 H       
  59 H59           -2.2949     1.8469    -2.3262 H       
  60 H60            0.5643     0.0495    -3.2202 H       
  61 H61           -4.7343     1.1993     1.2886 H       
  62 H62           -9.0205     3.2208     1.7641 H       
  63 H63           -6.3779     6.1016    -0.0026 H       
  64 H64           -4.6177     4.3992    -0.1627 H       
  65 H65           -7.7413     7.3012     0.2532 H       
  66 H66           -8.3484     9.6766     0.6990 H       
  67 H67          -11.2113     6.5204     0.3450 H       
  68 H68          -13.0315     8.1756     0.3059 H       
  69 H69          -10.1687    11.3319     0.6643 H       
  70 H70          -13.2693    12.7457     1.0443 H       
  71 H71          -11.5334    12.3655     1.1451 H       
  72 H72          -14.7222    11.1189    -0.1734 H       
  73 H73          -14.1777     9.4251    -0.2242 H       
  74 H74           -8.0781     1.7631     3.6351 H       
  75 H75           -8.5000    -0.5231     4.4280 H       
  76 H76           -7.0296    -2.0804     0.7088 H       
  77 H77           -6.6148     0.2075    -0.0828 H       
  78 H78          -15.4105    12.1248     1.8918 H       
  79 H79          -15.0245     7.6544     3.9937 H       
  80 H80          -14.1165     8.0726     1.7726 H       
  81 H81          -14.2858    13.2903    -1.0583 H       
  82 H82           -9.7497    13.2840    -3.0523 H       
  83 H83          -10.1336    12.3891    -0.8197 H       
  84 H84          -15.1853    14.3594    -3.1083 H       
  85 H85          -14.8002    15.2591    -5.3387 H       
  86 H86          -12.5506    15.2551    -6.3279 H       
  87 H87          -10.6489    14.3540    -5.1014 H       
  88 H88          -16.6085    12.9635     3.8959 H       
  89 H89          -17.5212    12.5437     6.1147 H       
  90 H90          -17.3289    10.3266     7.1574 H       
  91 H91          -16.2234     8.4926     5.9968 H       
@<TRIPOS>BOND
   1    1    2 1
   2    1    7 2
   3    1    6 1
   4    2   55 1
   5    2   56 1
   6    3    4 2
   7    4    5 1
   8    4    8 am
   9    5    6 1
  10    5   57 1
  11    5   58 1
  12    6   59 1
  13    7   60 1
  14    8    9 1
  15    8   61 1
  16    9   10 ar
  17    9   14 ar
  18   10   11 ar
  19   10   27 1
  20   11   12 ar
  21   11   62 1
  22   12   13 ar
  23   12   15 1
  24   13   14 ar
  25   13   63 1
  26   14   64 1
  27   15   16 am
  28   15   17 2
  29   16   18 1
  30   16   65 1
  31   18   19 ar
  32   18   20 ar
  33   19   23 ar
  34   19   66 1
  35   20   21 ar
  36   20   67 1
  37   21   22 ar
  38   21   68 1
  39   22   23 ar
  40   22   24 1
  41   23   69 1
  42   24   25 1
  43   24   26 1
  44   25   34 1
  45   25   70 1
  46   25   71 1
  47   26   33 1
  48   26   72 1
  49   26   73 1
  50   27   28 ar
  51   27   32 ar
  52   28   29 ar
  53   28   74 1
  54   29   30 ar
  55   29   75 1
  56   30   31 ar
  57   30   53 1
  58   31   32 ar
  59   31   76 1
  60   32   77 1
  61   33   35 ar
  62   33   39 ar
  63   34   40 ar
  64   34   44 ar
  65   35   36 ar
  66   35   78 1
  67   36   37 ar
  68   36   49 ar
  69   37   38 ar
  70   37   52 ar
  71   38   39 ar
  72   38   79 1
  73   39   80 1
  74   40   41 ar
  75   40   81 1
  76   41   42 ar
  77   41   45 ar
  78   42   43 ar
  79   42   48 ar
  80   43   44 ar
  81   43   82 1
  82   44   83 1
  83   45   46 ar
  84   45   84 1
  85   46   47 ar
  86   46   85 1
  87   47   48 ar
  88   47   86 1
  89   48   87 1
  90   49   50 ar
  91   49   88 1
  92   50   51 ar
  93   50   89 1
  94   51   52 ar
  95   51   90 1
  96   52   91 1
  97   53   54 3

#	End of record

