#	Name: ASD03091362
#	Creating user name:	WinNT
#	Creation time:	15. 06. 2019 20:30

#	Modifying user name:	WinNT
#	Modification time:	15. 06. 2019 20:30

#	Program:	/corina/corina34_cracker 3.40 0067  02.08.2006

@<TRIPOS>MOLECULE
ASD03091362
  62   64    0    0    0
SMALL
NO_CHARGES


@<TRIPOS>ATOM
   1 C1            -0.0234     1.4329    -0.0197 C.ar    
   2 C2            -0.0198     0.0359    -0.0245 C.ar    
   3 C3             1.2125    -0.6462    -0.0283 C.ar    
   4 N4             2.3562     0.0202    -0.0268 N.ar    
   5 C5             2.3937     1.3431    -0.0222 C.ar    
   6 C6             1.2046     2.0985    -0.0187 C.ar    
   7 C7            -1.2525    -0.6929    -0.0252 C.1     
   8 C8             1.2541     3.5297    -0.0143 C.1     
   9 N9             1.2277    -2.0263    -0.0331 N.pl3   
  10 N10            3.6126     1.9905    -0.0208 N.3     
  11 C11            4.3565     1.7097     1.2144 C.3     
  12 C12            4.4026     1.6280    -1.2051 C.3     
  13 C13            5.5303     2.5945     1.2922 C.1     
  14 C14            2.5044    -2.7448    -0.0370 C.3     
  15 C15            2.2415    -4.2520    -0.0419 C.3     
  16 C16            3.5748    -5.0023    -0.0460 C.3     
  17 C17            3.3119    -6.5096    -0.0510 C.3     
  18 C18            4.6401    -7.2603    -0.1808 C.3     
  19 C19            4.3766    -8.7667    -0.1240 C.3     
  20 N20            3.7258    -9.1034     1.1486 N.3     
  21 C21            2.4264    -8.4311     1.2748 C.3     
  22 C22            2.6317    -6.9146     1.2597 C.3     
  23 C23            3.5828   -10.5578     1.2982 C.3     
  24 C24            3.1425   -10.8774     2.7035 C.ar    
  25 C25            1.7957   -10.9464     3.0071 C.ar    
  26 C26            1.3919   -11.2395     4.2962 C.ar    
  27 C27            2.3349   -11.4641     5.2817 C.ar    
  28 C28            3.6817   -11.3960     4.9780 C.ar    
  29 C29            4.0855   -11.1071     3.6878 C.ar    
  30 N30           -2.2304    -1.2710    -0.0258 N.1     
  31 N31            1.2934     4.6650    -0.0107 N.1     
  32 C32            6.4665     3.3001     1.3542 C.1     
  33 H33           -0.9520     1.9843    -0.0212 H       
  34 H34            0.3931    -2.5206    -0.0339 H       
  35 H35            3.7112     1.8857     2.0751 H       
  36 H36            4.6845     0.6702     1.2127 H       
  37 H37            3.8162     1.8157    -2.1045 H       
  38 H38            5.3122     2.2279    -1.2326 H       
  39 H39            4.6657     0.5713    -1.1568 H       
  40 H40            3.0721    -2.4721    -0.9267 H       
  41 H41            3.0741    -2.4783     0.8533 H       
  42 H42            1.6738    -4.5247     0.8477 H       
  43 H43            1.6719    -4.5185    -0.9322 H       
  44 H44            4.1425    -4.7296    -0.9357 H       
  45 H45            4.1445    -4.7358     0.8443 H       
  46 H46            2.6660    -6.7639    -0.8914 H       
  47 H47            5.1089    -7.0085    -1.1321 H       
  48 H48            5.3007    -6.9752     0.6379 H       
  49 H49            3.7270    -9.0533    -0.9510 H       
  50 H50            5.3218    -9.3039    -0.2018 H       
  51 H51            1.7860    -8.7192     0.4412 H       
  52 H52            1.9553    -8.7245     2.2129 H       
  53 H53            3.2608    -6.6241     2.1011 H       
  54 H54            1.6656    -6.4159     1.3376 H       
  55 H55            2.8377   -10.9241     0.5919 H       
  56 H56            4.5400   -11.0395     1.0989 H       
  57 H57            1.0589   -10.7709     2.2372 H       
  58 H58            0.3396   -11.2927     4.5336 H       
  59 H59            2.0194   -11.6924     6.2891 H       
  60 H60            4.4185   -11.5711     5.7480 H       
  61 H61            5.1378   -11.0575     3.4497 H       
  62 H62            7.3038     3.9313     1.4097 H       
@<TRIPOS>BOND
   1    1    2 ar
   2    1    6 ar
   3    1   33 1
   4    2    3 ar
   5    2    7 1
   6    3    4 ar
   7    3    9 1
   8    4    5 ar
   9    5    6 ar
  10    5   10 1
  11    6    8 1
  12    7   30 3
  13    8   31 3
  14    9   14 1
  15    9   34 1
  16   10   11 1
  17   10   12 1
  18   11   13 1
  19   11   35 1
  20   11   36 1
  21   12   37 1
  22   12   38 1
  23   12   39 1
  24   13   32 3
  25   14   15 1
  26   14   40 1
  27   14   41 1
  28   15   16 1
  29   15   42 1
  30   15   43 1
  31   16   17 1
  32   16   44 1
  33   16   45 1
  34   17   18 1
  35   17   22 1
  36   17   46 1
  37   18   19 1
  38   18   47 1
  39   18   48 1
  40   19   20 1
  41   19   49 1
  42   19   50 1
  43   20   21 1
  44   20   23 1
  45   21   22 1
  46   21   51 1
  47   21   52 1
  48   22   53 1
  49   22   54 1
  50   23   24 1
  51   23   55 1
  52   23   56 1
  53   24   25 ar
  54   24   29 ar
  55   25   26 ar
  56   25   57 1
  57   26   27 ar
  58   26   58 1
  59   27   28 ar
  60   27   59 1
  61   28   29 ar
  62   28   60 1
  63   29   61 1
  64   32   62 1

#	End of record

