#	Name: ASD01230817
#	Creating user name:	WinNT
#	Creation time:	15. 06. 2019 19:15

#	Modifying user name:	WinNT
#	Modification time:	15. 06. 2019 19:15

#	Program:	/corina/corina34_cracker 3.40 0067  02.08.2006

@<TRIPOS>MOLECULE
ASD01230817
  16   16    0    0    0
SMALL
NO_CHARGES


@<TRIPOS>ATOM
   1 C1            -0.0933     1.2409    -0.0237 C.ar    
   2 C2             0.1203    -0.0967     0.3536 C.ar    
   3 C3             1.4293    -0.5930     0.3639 C.ar    
   4 C4             2.4579     0.2582     0.0010 C.ar    
   5 C5             2.1685     1.5625    -0.3583 C.ar    
   6 N6             0.9287     2.0118    -0.3619 N.ar    
   7 C7            -1.0120    -0.9595     0.7314 C.2     
   8 O8            -2.1293    -0.4904     0.8228 O.2     
   9 O9            -0.8090    -2.2692     0.9757 O.3     
  10 N10           -1.3774     1.7521    -0.0471 N.pl3   
  11 H11            1.6313    -1.6151     0.6485 H       
  12 H12            3.4792    -0.0929    -0.0014 H       
  13 H13            2.9731     2.2252    -0.6409 H       
  14 H14           -1.5827    -2.7952     1.2203 H       
  15 H15           -2.1363     1.1533    -0.1269 H       
  16 H16           -1.5195     2.7095     0.0163 H       
@<TRIPOS>BOND
   1    1    2 ar
   2    1    6 ar
   3    1   10 1
   4    2    3 ar
   5    2    7 1
   6    3    4 ar
   7    3   11 1
   8    4    5 ar
   9    4   12 1
  10    5    6 ar
  11    5   13 1
  12    7    8 2
  13    7    9 1
  14    9   14 1
  15   10   15 1
  16   10   16 1

#	End of record

