#	Name: ASD01810301
#	Creating user name:	WinNT
#	Creation time:	15. 06. 2019 19:24

#	Modifying user name:	WinNT
#	Modification time:	15. 06. 2019 19:24

#	Program:	/corina/corina34_cracker 3.40 0067  02.08.2006

@<TRIPOS>MOLECULE
ASD01810301
  39   42    0    0    0
SMALL
NO_CHARGES


@<TRIPOS>ATOM
   1 C1             0.1039     1.4772     0.3901 C.ar    
   2 C2             0.0850     0.0900     0.3820 C.ar    
   3 C3             1.2535    -0.6295     0.2401 C.ar    
   4 C4             2.4697     0.0389     0.1030 C.ar    
   5 C5             2.4841     1.4436     0.1117 C.ar    
   6 C6             1.2943     2.1571     0.2561 C.ar    
   7 N7             3.6452    -0.6678    -0.0386 N.pl3   
   8 C8             4.8373    -0.0735    -0.1721 C.2     
   9 C9             4.9781     1.2999    -0.1779 C.2     
  10 C10            3.7770     2.1382    -0.0343 C.2     
  11 O11            3.8480     3.3547    -0.0335 O.2     
  12 C12            3.5871    -2.1316    -0.0427 C.3     
  13 C13            3.4445    -2.6248    -1.4595 C.ar    
  14 C14            4.5665    -2.7660    -2.2562 C.ar    
  15 C15            4.4416    -3.2168    -3.5547 C.ar    
  16 C16            3.1827    -3.5303    -4.0625 C.ar    
  17 C17            2.0560    -3.3867    -3.2556 C.ar    
  18 C18            2.1929    -2.9400    -1.9568 C.ar    
  19 C19            3.0422    -4.0151    -5.4583 C.2     
  20 C20            6.3049     1.9144    -0.3258 C.2     
  21 O21            6.4294     3.2567    -0.3299 O.3     
  22 O22            7.2902     1.2123    -0.4445 O.2     
  23 C23            1.8497    -4.3440    -6.0345 C.2     
  24 S24            2.2740    -4.8316    -7.6295 S.3     
  25 N25            3.8132    -4.6025    -7.4676 N.2     
  26 N26            4.0592    -4.1737    -6.2923 N.2     
  27 F27            1.2196    -1.9800     0.2345 F       
  28 H28           -0.8197     2.0267     0.4976 H       
  29 H29           -0.8544    -0.4321     0.4883 H       
  30 H30            1.3063     3.2370     0.2623 H       
  31 H31            5.7184    -0.6889    -0.2785 H       
  32 H32            4.5030    -2.5328     0.3913 H       
  33 H33            2.7311    -2.4629     0.5452 H       
  34 H34            5.5419    -2.5226    -1.8615 H       
  35 H35            5.3182    -3.3260    -4.1761 H       
  36 H36            1.0778    -3.6283    -3.6443 H       
  37 H37            1.3203    -2.8286    -1.3303 H       
  38 H38            7.3222     3.6145    -0.4299 H       
  39 H39            0.8655    -4.3072    -5.5912 H       
@<TRIPOS>BOND
   1    1    2 ar
   2    1    6 ar
   3    1   28 1
   4    2    3 ar
   5    2   29 1
   6    3    4 ar
   7    3   27 1
   8    4    5 ar
   9    4    7 1
  10    5    6 ar
  11    5   10 1
  12    6   30 1
  13    7    8 1
  14    7   12 1
  15    8    9 2
  16    8   31 1
  17    9   10 1
  18    9   20 1
  19   10   11 2
  20   12   13 1
  21   12   32 1
  22   12   33 1
  23   13   14 ar
  24   13   18 ar
  25   14   15 ar
  26   14   34 1
  27   15   16 ar
  28   15   35 1
  29   16   17 ar
  30   16   19 1
  31   17   18 ar
  32   17   36 1
  33   18   37 1
  34   19   23 2
  35   19   26 1
  36   20   21 1
  37   20   22 2
  38   21   38 1
  39   23   24 1
  40   23   39 1
  41   24   25 1
  42   25   26 2

#	End of record

