#	Name: ASD01881802
#	Creating user name:	WinNT
#	Creation time:	15. 06. 2019 19:43

#	Modifying user name:	WinNT
#	Modification time:	15. 06. 2019 19:43

#	Program:	/corina/corina34_cracker 3.40 0067  02.08.2006

@<TRIPOS>MOLECULE
ASD01881802
  53   56    0    0    0
SMALL
NO_CHARGES


@<TRIPOS>ATOM
   1 C1            -2.3528     1.4717     0.0301 C.2     
   2 C2            -2.3333    -0.0352     0.0219 C.3     
   3 C3            -3.7688    -0.5640     0.0437 C.3     
   4 O4            -3.4108     2.0642     0.0513 O.2     
   5 N5            -1.1946     2.1607     0.0195 N.am    
   6 C6            -1.6269    -0.5292    -1.2422 C.3     
   7 C7            -1.5842    -0.5422     1.2559 C.3     
   8 C8            -1.2116     3.5512    -0.0781 C.ar    
   9 C9            -0.0221     4.2637     0.0254 C.ar    
  10 C10           -0.0533     5.6434    -0.0732 C.ar    
  11 C11           -1.2783     6.2656    -0.2729 C.ar    
  12 C12           -2.4204     5.4954    -0.3664 C.ar    
  13 N13           -2.3593     4.1808    -0.2739 N.ar    
  14 C14           -1.3605     7.7661    -0.3859 C.3     
  15 O15           -1.2155     8.1494    -1.7549 O.3     
  16 N16           -1.3841    13.4464    -3.1397 N.pl3   
  17 N17           -1.2003    13.2520    -4.5167 N.2     
  18 N18           -1.0889    11.9939    -4.7603 N.2     
  19 C19           -1.1853    11.2850    -3.6178 C.ar    
  20 C20           -1.3751    12.1961    -2.5644 C.ar    
  21 C21           -1.1327     9.9131    -3.3351 C.ar    
  22 C22           -1.2664     9.4797    -2.0323 C.ar    
  23 C23           -1.4536    10.3947    -0.9990 C.ar    
  24 C24           -1.5083    11.7349    -1.2596 C.ar    
  25 C25           -1.5472    14.7281    -2.4492 C.3     
  26 C26           -3.0328    15.0885    -2.3869 C.3     
  27 C27           -3.4237    16.3400    -1.5984 C.3     
  28 C28           -3.4858    16.3486    -3.1272 C.3     
  29 Br29          -0.8791     8.6636    -4.7316 Br      
  30 H30           -4.3025    -0.2028    -0.8354 H       
  31 H31           -3.7546    -1.6539     0.0378 H       
  32 H32           -4.2720    -0.2121     0.9443 H       
  33 H33           -0.3491     1.6891     0.0797 H       
  34 H34           -0.6042    -0.1524    -1.2577 H       
  35 H35           -1.6128    -1.6191    -1.2481 H       
  36 H36           -2.1606    -0.1680    -2.1213 H       
  37 H37           -2.0873    -0.1903     2.1565 H       
  38 H38           -1.5700    -1.6321     1.2500 H       
  39 H39           -0.5614    -0.1655     1.2403 H       
  40 H40            0.9134     3.7471     0.1811 H       
  41 H41            0.8546     6.2232     0.0037 H       
  42 H42           -3.3756     5.9751    -0.5213 H       
  43 H43           -2.3270     8.1061    -0.0139 H       
  44 H44           -0.5642     8.2192     0.2046 H       
  45 H45           -1.5572    10.0419     0.0165 H       
  46 H46           -1.6540    12.4364    -0.4515 H       
  47 H47           -1.1498    14.6488    -1.4373 H       
  48 H48           -1.0075    15.5043    -2.9917 H       
  49 H49           -3.7210    14.2435    -2.3634 H       
  50 H50           -4.3692    16.3186    -1.0565 H       
  51 H51           -2.6225    16.9067    -1.1241 H       
  52 H52           -2.7253    16.9208    -3.6585 H       
  53 H53           -4.4720    16.3327    -3.5909 H       
@<TRIPOS>BOND
   1    1    2 1
   2    1    4 2
   3    1    5 am
   4    2    3 1
   5    2    6 1
   6    2    7 1
   7    3   30 1
   8    3   31 1
   9    3   32 1
  10    5    8 1
  11    5   33 1
  12    6   34 1
  13    6   35 1
  14    6   36 1
  15    7   37 1
  16    7   38 1
  17    7   39 1
  18    8    9 ar
  19    8   13 ar
  20    9   10 ar
  21    9   40 1
  22   10   11 ar
  23   10   41 1
  24   11   12 ar
  25   11   14 1
  26   12   13 ar
  27   12   42 1
  28   14   15 1
  29   14   43 1
  30   14   44 1
  31   15   22 1
  32   16   17 1
  33   16   20 1
  34   16   25 1
  35   17   18 2
  36   18   19 1
  37   19   20 ar
  38   19   21 ar
  39   20   24 ar
  40   21   22 ar
  41   21   29 1
  42   22   23 ar
  43   23   24 ar
  44   23   45 1
  45   24   46 1
  46   25   26 1
  47   25   47 1
  48   25   48 1
  49   26   27 1
  50   26   28 1
  51   26   49 1
  52   27   28 1
  53   27   50 1
  54   27   51 1
  55   28   52 1
  56   28   53 1

#	End of record

