#	Name: ASD03430222
#	Creating user name:	WinNT
#	Creation time:	15. 06. 2019 20:40

#	Modifying user name:	WinNT
#	Modification time:	15. 06. 2019 20:40

#	Program:	/corina/corina34_cracker 3.40 0067  02.08.2006

@<TRIPOS>MOLECULE
ASD03430222
  69   74    0    0    0
SMALL
NO_CHARGES


@<TRIPOS>ATOM
   1 C1            -0.4859     0.8440     1.0910 C.ar    
   2 C2            -0.4622    -0.5199     0.9007 C.ar    
   3 C3             0.7351    -1.2034     0.9379 C.ar    
   4 C4             1.9265    -0.5230     1.1762 C.ar    
   5 C5             1.8951     0.8547     1.3568 C.ar    
   6 C6             0.6918     1.5483     1.3127 C.ar    
   7 O7             2.9856    -1.3809     1.2058 O.3     
   8 C8             1.0965    -2.6521     0.7522 C.3     
   9 C9             2.6187    -2.6127     0.5559 C.3     
  10 C10           -0.1310    -4.4860     1.4239 C.ar    
  11 C11            0.7070    -3.4955     1.9301 C.ar    
  12 C12            0.3986    -3.2679    -0.4261 C.2     
  13 N13           -0.2901    -4.3265     0.0456 N.am    
  14 O14            0.4454    -2.8875    -1.5768 O.2     
  15 C15            1.0095    -3.4528     3.2724 C.ar    
  16 C16            0.4810    -4.3990     4.1329 C.ar    
  17 C17           -0.3525    -5.3867     3.6415 C.ar    
  18 C18           -0.6590    -5.4337     2.2972 C.ar    
  19 C19           -1.6195     1.8499     1.1252 C.3     
  20 C20           -0.9381     3.0782     1.7737 C.3     
  21 O21            0.4482     2.8818     1.4474 O.3     
  22 C22           -1.1097    -5.2072    -0.7904 C.3     
  23 C23           -2.5184    -4.6750    -0.8503 C.ar    
  24 C24           -2.8760    -3.7836    -1.8409 C.ar    
  25 C25           -3.4516    -5.0857     0.0847 C.ar    
  26 C26           -4.7473    -4.6022     0.0365 C.ar    
  27 C27           -5.1166    -3.7070    -0.9458 C.ar    
  28 C28           -4.1810    -3.2922    -1.8951 C.ar    
  29 C29           -4.5698    -2.3328    -2.9508 C.2     
  30 O30           -3.7530    -1.9734    -3.7761 O.2     
  31 N31           -5.8298    -1.8568    -2.9979 N.am    
  32 C32           -6.2151    -0.9062    -4.0440 C.3     
  33 C33           -7.6874    -0.5275    -3.8717 C.3     
  34 C34           -7.8692     0.2264    -2.5528 C.3     
  35 C35           -8.1234     0.3665    -5.0344 C.3     
  36 C36           -8.0758    -0.4330    -6.3380 C.3     
  37 C37           -9.3590     0.4752    -2.3087 C.3     
  38 H38           -1.3831    -1.0553     0.7223 H       
  39 H39            2.8154     1.3916     1.5339 H       
  40 H40            2.8716    -2.5813    -0.5039 H       
  41 H41            3.0940    -3.4639     1.0432 H       
  42 H42            1.6604    -2.6802     3.6543 H       
  43 H43            0.7192    -4.3662     5.1858 H       
  44 H44           -0.7651    -6.1251     4.3130 H       
  45 H45           -1.3105    -6.2084     1.9207 H       
  46 H46           -1.9643     2.0826     0.1177 H       
  47 H47           -2.4418     1.4892     1.7432 H       
  48 H48           -1.3109     4.0034     1.3343 H       
  49 H49           -1.0848     3.0758     2.8538 H       
  50 H50           -0.6925    -5.2447    -1.7967 H       
  51 H51           -1.1180    -6.2098    -0.3628 H       
  52 H52           -2.1474    -3.4667    -2.5725 H       
  53 H53           -3.1678    -5.7871     0.8554 H       
  54 H54           -5.4712    -4.9268     0.7694 H       
  55 H55           -6.1282    -3.3307    -0.9825 H       
  56 H56           -6.4816    -2.1437    -2.3393 H       
  57 H57           -5.5981    -0.0110    -3.9664 H       
  58 H58           -6.0697    -1.3640    -5.0224 H       
  59 H59           -8.2962    -1.4315    -3.8604 H       
  60 H60           -7.4614    -0.3681    -1.7353 H       
  61 H61           -7.3451     1.1808    -2.6046 H       
  62 H62           -9.1404     0.7182    -4.8607 H       
  63 H63           -7.4509     1.2212    -5.1076 H       
  64 H64           -8.3171     0.2222    -7.1751 H       
  65 H65           -7.0760    -0.8448    -6.4754 H       
  66 H66           -8.8005    -1.2459    -6.2924 H       
  67 H67           -9.8976    -0.4713    -2.3544 H       
  68 H68           -9.4959     0.9241    -1.3250 H       
  69 H69           -9.7446     1.1500    -3.0729 H       
@<TRIPOS>BOND
   1    1    2 ar
   2    1    6 ar
   3    1   19 1
   4    2    3 ar
   5    2   38 1
   6    3    4 ar
   7    3    8 1
   8    4    5 ar
   9    4    7 1
  10    5    6 ar
  11    5   39 1
  12    6   21 1
  13    7    9 1
  14    8    9 1
  15    8   11 1
  16    8   12 1
  17    9   40 1
  18    9   41 1
  19   10   11 ar
  20   10   13 1
  21   10   18 ar
  22   11   15 ar
  23   12   13 am
  24   12   14 2
  25   13   22 1
  26   15   16 ar
  27   15   42 1
  28   16   17 ar
  29   16   43 1
  30   17   18 ar
  31   17   44 1
  32   18   45 1
  33   19   20 1
  34   19   46 1
  35   19   47 1
  36   20   21 1
  37   20   48 1
  38   20   49 1
  39   22   23 1
  40   22   50 1
  41   22   51 1
  42   23   24 ar
  43   23   25 ar
  44   24   28 ar
  45   24   52 1
  46   25   26 ar
  47   25   53 1
  48   26   27 ar
  49   26   54 1
  50   27   28 ar
  51   27   55 1
  52   28   29 1
  53   29   30 2
  54   29   31 am
  55   31   32 1
  56   31   56 1
  57   32   33 1
  58   32   57 1
  59   32   58 1
  60   33   35 1
  61   33   34 1
  62   33   59 1
  63   34   37 1
  64   34   60 1
  65   34   61 1
  66   35   36 1
  67   35   62 1
  68   35   63 1
  69   36   64 1
  70   36   65 1
  71   36   66 1
  72   37   67 1
  73   37   68 1
  74   37   69 1

#	End of record

