#	Name: ASD05430368
#	Creating user name:	WinNT
#	Creation time:	15. 06. 2019 21:00

#	Modifying user name:	WinNT
#	Modification time:	15. 06. 2019 21:00

#	Program:	/corina/corina34_cracker 3.40 0067  02.08.2006

@<TRIPOS>MOLECULE
ASD05430368
  61   65    0    0    0
SMALL
NO_CHARGES


@<TRIPOS>ATOM
   1 C1            -0.1707     1.2090     0.9646 C.ar    
   2 C2            -0.0147    -0.0171     0.3185 C.ar    
   3 C3            -1.0645    -0.5597    -0.4117 C.ar    
   4 C4            -2.2646     0.1110    -0.5016 C.ar    
   5 C5            -2.4283     1.3412     0.1438 C.ar    
   6 C6            -1.3734     1.8846     0.8836 C.ar    
   7 C7            -4.8620     1.3700    -0.0453 C.2     
   8 C8            -3.7095     2.0592     0.0490 C.2     
   9 N9            -7.2945     1.4655     0.2229 N.pl3   
  10 C10           -6.1492     2.0292    -0.3149 C.2     
  11 C11           -8.2827     2.7451     2.0100 C.ar    
  12 C12           -7.6235     1.9383     2.9187 C.ar    
  13 C13           -8.8012     3.9616     2.4130 C.ar    
  14 C14           -8.6608     4.3727     3.7249 C.ar    
  15 C15           -8.0008     3.5655     4.6359 C.ar    
  16 C16           -7.4823     2.3471     4.2312 C.ar    
  17 F17           -7.8626     3.9666     5.9185 F       
  18 O18            0.8588     1.7368     1.6788 O.3     
  19 C19            0.6290     2.9958     2.3146 C.3     
  20 C20            1.3750    -2.0205     0.7440 C.2     
  21 N21            1.2037    -0.7030     0.4057 N.pl3   
  22 C22            2.6987    -2.2644     0.7049 C.2     
  23 N23            3.3233    -1.1307     0.3531 N.2     
  24 C24            2.4388    -0.1882     0.1711 C.2     
  25 C25            3.3636    -3.5830     1.0051 C.3     
  26 O26           -7.3191     0.0597     0.4152 O.3     
  27 C27           -6.1242    -0.4727     1.0019 C.3     
  28 C28           -4.9170    -0.1423     0.1138 C.3     
  29 C29           -8.4306     2.3010     0.5775 C.3     
  30 C30           -8.5409     3.5316    -0.3123 C.3     
  31 C31           -7.6080     3.4660    -1.5130 C.3     
  32 N32           -6.2569     3.0601    -1.1032 N.2     
  33 C33           -9.7130     1.4768     0.4459 C.3     
  34 O34           -9.8869     3.6465    -0.7781 O.3     
  35 H35           -0.9396    -1.5094    -0.9106 H       
  36 H36           -3.0788    -0.3128    -1.0706 H       
  37 H37           -1.4956     2.8341     1.3835 H       
  38 H38           -3.7251     3.1391     0.0551 H       
  39 H39           -7.2192     0.9880     2.6028 H       
  40 H40           -9.3160     4.5911     1.7022 H       
  41 H41           -9.0653     5.3234     4.0393 H       
  42 H42           -6.9676     1.7165     4.9410 H       
  43 H43            1.5281     3.3023     2.8491 H       
  44 H44            0.3816     3.7435     1.5611 H       
  45 H45           -0.1980     2.9018     3.0184 H       
  46 H46            0.5977    -2.7262     0.9977 H       
  47 H47            2.6530     0.8302    -0.1176 H       
  48 H48            3.4460    -4.1656     0.0875 H       
  49 H49            4.3587    -3.4038     1.4122 H       
  50 H50            2.7671    -4.1334     1.7326 H       
  51 H51           -5.9760    -0.0302     1.9869 H       
  52 H52           -6.2207    -1.5538     1.1024 H       
  53 H53           -5.0364    -0.6126    -0.8622 H       
  54 H54           -4.0017    -0.4979     0.5870 H       
  55 H55           -8.2966     4.4158     0.2765 H       
  56 H56           -7.9973     2.7437    -2.2305 H       
  57 H57           -7.5601     4.4479    -1.9839 H       
  58 H58           -9.6637     0.6186     1.1160 H       
  59 H59          -10.5709     2.0952     0.7098 H       
  60 H60           -9.8178     1.1296    -0.5820 H       
  61 H61          -10.0403     4.4085    -1.3534 H       
@<TRIPOS>BOND
   1    1    2 ar
   2    1   18 1
   3    1    6 ar
   4    2    3 ar
   5    2   21 1
   6    3    4 ar
   7    3   35 1
   8    4    5 ar
   9    4   36 1
  10    5    6 ar
  11    5    8 1
  12    6   37 1
  13    7    8 2
  14    7   28 1
  15    7   10 1
  16    8   38 1
  17    9   10 1
  18    9   29 1
  19    9   26 1
  20   10   32 2
  21   11   12 ar
  22   11   13 ar
  23   11   29 1
  24   12   16 ar
  25   12   39 1
  26   13   14 ar
  27   13   40 1
  28   14   15 ar
  29   14   41 1
  30   15   16 ar
  31   15   17 1
  32   16   42 1
  33   18   19 1
  34   19   43 1
  35   19   44 1
  36   19   45 1
  37   20   21 1
  38   20   22 2
  39   20   46 1
  40   21   24 1
  41   22   23 1
  42   22   25 1
  43   23   24 2
  44   24   47 1
  45   25   48 1
  46   25   49 1
  47   25   50 1
  48   26   27 1
  49   27   28 1
  50   27   51 1
  51   27   52 1
  52   28   53 1
  53   28   54 1
  54   29   30 1
  55   29   33 1
  56   30   31 1
  57   30   34 1
  58   30   55 1
  59   31   32 1
  60   31   56 1
  61   31   57 1
  62   33   58 1
  63   33   59 1
  64   33   60 1
  65   34   61 1

#	End of record

