#	Name: ASD01883475
#	Creating user name:	WinNT
#	Creation time:	15. 06. 2019 19:46

#	Modifying user name:	WinNT
#	Modification time:	15. 06. 2019 19:46

#	Program:	/corina/corina34_cracker 3.40 0067  02.08.2006

@<TRIPOS>MOLECULE
ASD01883475
  61   64    0    0    0
SMALL
NO_CHARGES


@<TRIPOS>ATOM
   1 N1            -0.0080     1.3271     0.0354 N.am    
   2 C2            -0.3623     0.6471    -1.0708 C.2     
   3 C3            -1.5938    -0.0487    -1.1070 C.2     
   4 C4            -2.4239    -0.0108     0.0261 C.2     
   5 C5            -1.9981     0.7175     1.1524 C.2     
   6 C6            -0.8092     1.3586     1.1319 C.2     
   7 O7             0.3768     0.6309    -2.0406 O.2     
   8 C8            -1.9868    -0.7769    -2.2757 C.1     
   9 N9            -2.2985    -1.3546    -3.2029 N.1     
  10 N10           -3.6309    -0.6732     0.0341 N.pl3   
  11 C11           -4.8919     0.0702     0.1608 C.3     
  12 C12           -5.6944    -0.5155     1.3268 C.3     
  13 C13           -5.8708    -2.0207     1.1144 C.3     
  14 C14           -4.4985    -2.6976     1.0843 C.3     
  15 C15           -3.6827    -2.1362    -0.0901 C.3     
  16 C16            1.2701     2.0427     0.0594 C.3     
  17 C17            1.0676     3.4497    -0.4412 C.ar    
  18 C18            0.7492     4.4594     0.4480 C.ar    
  19 C19            0.5630     5.7500    -0.0084 C.ar    
  20 C20            0.6959     6.0324    -1.3601 C.ar    
  21 C21            1.0154     5.0174    -2.2503 C.ar    
  22 C22            1.2061     3.7296    -1.7881 C.ar    
  23 C23           -6.7015    -2.6033     2.2596 C.3     
  24 O24           -6.9649    -3.9841     2.0025 O.3     
  25 C25           -7.6962    -4.6547     2.9287 C.ar    
  26 C26           -8.0000    -6.0030     2.7589 C.ar    
  27 C27           -8.7456    -6.6494     3.7235 C.ar    
  28 N28           -9.1685    -6.0059     4.7950 N.ar    
  29 C29           -8.9010    -4.7285     4.9914 C.ar    
  30 C30           -8.1569    -4.0133     4.0761 C.ar    
  31 C31           -9.0813    -8.1083     3.5509 C.3     
  32 O32            0.5128     7.3010    -1.8116 O.3     
  33 C33            0.6655     7.5183    -3.2157 C.3     
  34 F34           -0.2603     6.7342    -3.9123 F       
  35 F35            0.4441     8.8690    -3.5054 F       
  36 F36            1.9621     7.1646    -3.6041 F       
  37 H37           -2.6200     0.7608     2.0343 H       
  38 H38           -0.4930     1.9144     2.0022 H       
  39 H39           -4.6785     1.1212     0.3555 H       
  40 H40           -5.4656    -0.0236    -0.7613 H       
  41 H41           -5.1602    -0.3399     2.2606 H       
  42 H42           -6.6729    -0.0373     1.3715 H       
  43 H43           -6.3831    -2.1964     0.1685 H       
  44 H44           -3.9756    -2.5016     2.0204 H       
  45 H45           -4.6258    -3.7726     0.9564 H       
  46 H46           -4.1593    -2.4118    -1.0309 H       
  47 H47           -2.6709    -2.5405    -0.0585 H       
  48 H48            1.6512     2.0716     1.0802 H       
  49 H49            1.9865     1.5287    -0.5814 H       
  50 H50            0.6455     4.2390     1.5002 H       
  51 H51            0.3140     6.5383     0.6865 H       
  52 H52            1.1194     5.2347    -3.3031 H       
  53 H53            1.4549     2.9391    -2.4806 H       
  54 H54           -6.1496    -2.5066     3.1945 H       
  55 H55           -7.6443    -2.0617     2.3366 H       
  56 H56           -7.6572    -6.5354     1.8840 H       
  57 H57           -9.2660    -4.2380     5.8817 H       
  58 H58           -7.9412    -2.9683     4.2430 H       
  59 H59           -8.2991    -8.7173     4.0040 H       
  60 H60          -10.0342    -8.3216     4.0352 H       
  61 H61           -9.1535    -8.3413     2.4885 H       
@<TRIPOS>BOND
   1    1    2 am
   2    1   16 1
   3    1    6 1
   4    2    3 1
   5    2    7 2
   6    3    4 2
   7    3    8 1
   8    4    5 1
   9    4   10 1
  10    5    6 2
  11    5   37 1
  12    6   38 1
  13    8    9 3
  14   10   11 1
  15   10   15 1
  16   11   12 1
  17   11   39 1
  18   11   40 1
  19   12   13 1
  20   12   41 1
  21   12   42 1
  22   13   14 1
  23   13   23 1
  24   13   43 1
  25   14   15 1
  26   14   44 1
  27   14   45 1
  28   15   46 1
  29   15   47 1
  30   16   17 1
  31   16   48 1
  32   16   49 1
  33   17   18 ar
  34   17   22 ar
  35   18   19 ar
  36   18   50 1
  37   19   20 ar
  38   19   51 1
  39   20   21 ar
  40   20   32 1
  41   21   22 ar
  42   21   52 1
  43   22   53 1
  44   23   24 1
  45   23   54 1
  46   23   55 1
  47   24   25 1
  48   25   26 ar
  49   25   30 ar
  50   26   27 ar
  51   26   56 1
  52   27   28 ar
  53   27   31 1
  54   28   29 ar
  55   29   30 ar
  56   29   57 1
  57   30   58 1
  58   31   59 1
  59   31   60 1
  60   31   61 1
  61   32   33 1
  62   33   34 1
  63   33   35 1
  64   33   36 1

#	End of record

