#	Name: ASD01812898
#	Creating user name:	WinNT
#	Creation time:	15. 06. 2019 19:29

#	Modifying user name:	WinNT
#	Modification time:	15. 06. 2019 19:29

#	Program:	/corina/corina34_cracker 3.40 0067  02.08.2006

@<TRIPOS>MOLECULE
ASD01812898
  47   50    0    0    0
SMALL
NO_CHARGES


@<TRIPOS>ATOM
   1 N1             0.0027     1.3184    -0.2224 N.ar    
   2 C2             0.0319     0.0058    -0.3460 C.ar    
   3 C3             1.2340    -0.6843    -0.3682 C.ar    
   4 C4             2.4113     0.0205    -0.2593 C.ar    
   5 C5             2.3614     1.4132    -0.1292 C.ar    
   6 C6             1.1073     2.0395    -0.1145 C.ar    
   7 C7             3.8682    -0.3581    -0.2428 C.3     
   8 N8             4.6151     0.8975    -0.0972 N.am    
   9 C9             3.7395     1.9163    -0.0322 C.2     
  10 C10            6.0736     1.0204    -0.0337 C.3     
  11 C11            6.6239     1.1966    -1.4255 C.ar    
  12 O12            1.0259     3.3855     0.0100 O.3     
  13 O13            4.0442     3.0870     0.0899 O.2     
  14 C14            6.7704     2.4675    -1.9525 C.ar    
  15 C15            7.2732     2.6358    -3.2261 C.ar    
  16 C16            7.6348     1.5204    -3.9832 C.ar    
  17 C17            7.4849     0.2411    -3.4455 C.ar    
  18 C18            6.9858     0.0871    -2.1686 C.ar    
  19 C19           -0.2021     3.9617    -0.0802 C.ar    
  20 C20           -1.0087     4.0614     1.0465 C.ar    
  21 C21           -2.2577     4.6483     0.9509 C.ar    
  22 C22           -2.7025     5.1344    -0.2646 C.ar    
  23 C23           -1.9011     5.0354    -1.3870 C.ar    
  24 C24           -0.6499     4.4562    -1.2961 C.ar    
  25 F25           -0.5740     3.5855     2.2339 F       
  26 C26           -4.0638     5.7728    -0.3664 C.3     
  27 C27            8.1738     1.6932    -5.3490 C.2     
  28 N28            8.5221     0.6141    -6.0776 N.am    
  29 O29            8.3029     2.8085    -5.8149 O.2     
  30 F30           -3.9543     7.1460    -0.1221 F       
  31 F31           -4.5804     5.5674    -1.6502 F       
  32 F32           -4.9204     5.1979     0.5785 F       
  33 H33           -0.8959    -0.5406    -0.4310 H       
  34 H34            1.2466    -1.7595    -0.4692 H       
  35 H35            4.0747    -1.0171     0.6004 H       
  36 H36            4.1385    -0.8488    -1.1778 H       
  37 H37            6.3392     1.8853     0.5742 H       
  38 H38            6.4951     0.1196     0.4123 H       
  39 H39            6.4902     3.3298    -1.3655 H       
  40 H40            7.3863     3.6283    -3.6365 H       
  41 H41            7.7629    -0.6260    -4.0262 H       
  42 H42            6.8731    -0.9020    -1.7498 H       
  43 H43           -2.8858     4.7265     1.8260 H       
  44 H44           -2.2518     5.4154    -2.3351 H       
  45 H45           -0.0231     4.3839    -2.1726 H       
  46 H46            8.8757     0.7275    -6.9737 H       
  47 H47            8.4191    -0.2759    -5.7058 H       
@<TRIPOS>BOND
   1    1    2 ar
   2    1    6 ar
   3    2    3 ar
   4    2   33 1
   5    3    4 ar
   6    3   34 1
   7    4    7 1
   8    4    5 ar
   9    5    6 ar
  10    5    9 1
  11    6   12 1
  12    7    8 1
  13    7   35 1
  14    7   36 1
  15    8    9 am
  16    8   10 1
  17    9   13 2
  18   10   11 1
  19   10   37 1
  20   10   38 1
  21   11   14 ar
  22   11   18 ar
  23   12   19 1
  24   14   15 ar
  25   14   39 1
  26   15   16 ar
  27   15   40 1
  28   16   17 ar
  29   16   27 1
  30   17   18 ar
  31   17   41 1
  32   18   42 1
  33   19   20 ar
  34   19   24 ar
  35   20   21 ar
  36   20   25 1
  37   21   22 ar
  38   21   43 1
  39   22   23 ar
  40   22   26 1
  41   23   24 ar
  42   23   44 1
  43   24   45 1
  44   26   30 1
  45   26   31 1
  46   26   32 1
  47   27   29 2
  48   27   28 am
  49   28   46 1
  50   28   47 1

#	End of record

