#	Name: ASD02770015
#	Creating user name:	WinNT
#	Creation time:	15. 06. 2019 20:26

#	Modifying user name:	WinNT
#	Modification time:	15. 06. 2019 20:26

#	Program:	/corina/corina34_cracker 3.40 0067  02.08.2006

@<TRIPOS>MOLECULE
ASD02770015
  53   53    0    0    0
SMALL
NO_CHARGES


@<TRIPOS>ATOM
   1 C1            -0.0184     1.5028     0.0103 C.2     
   2 C2             0.0021    -0.0041     0.0020 C.3     
   3 O3             1.0236     2.1234     0.0037 O.2     
   4 N4            -1.1946     2.1607     0.0195 N.am    
   5 O5             1.3556    -0.4620    -0.0134 O.3     
   6 C6             1.5521    -1.8079    -0.0225 C.ar    
   7 C7             1.6410    -2.4891    -1.2270 C.ar    
   8 C8             1.8408    -3.8579    -1.2339 C.ar    
   9 C9             1.9517    -4.5492    -0.0417 C.ar    
  10 C10            1.8635    -3.8757     1.1622 C.ar    
  11 C11            1.6700    -2.5034     1.1765 C.ar    
  12 O12            1.5895    -1.8389     2.3603 O.3     
  13 C13            1.7194    -2.6175     3.5515 C.3     
  14 C14            2.1688    -6.0404    -0.0547 C.3     
  15 N15            3.6099    -6.3253    -0.0707 N.3     
  16 C16            3.8602    -7.7727    -0.0837 C.3     
  17 C17            5.2295    -8.0479    -0.7086 C.3     
  18 C18            5.3290    -9.5269    -1.0872 C.3     
  19 C19            4.0294    -9.9701    -1.7619 C.3     
  20 C20            3.3040   -10.9734    -0.8629 C.3     
  21 C21            2.6372   -10.2292     0.2958 C.3     
  22 C22            3.6979    -9.8306     1.3236 C.3     
  23 C23            3.8370    -8.3073     1.3498 C.3     
  24 Cl24           1.5011    -1.6245    -2.7258 Cl      
  25 H25           -0.4983    -0.3791     0.8948 H       
  26 H26           -0.5153    -0.3696    -0.8850 H       
  27 H27           -2.0280     1.6644     0.0207 H       
  28 H28           -1.2077     3.1306     0.0248 H       
  29 H29            1.9100    -4.3877    -2.1725 H       
  30 H30            1.9497    -4.4184     2.0920 H       
  31 H31            1.6366    -1.9667     4.4219 H       
  32 H32            0.9298    -3.3683     3.5827 H       
  33 H33            2.6910    -3.1117     3.5584 H       
  34 H34            1.7213    -6.4805     0.8364 H       
  35 H35            1.7042    -6.4674    -0.9434 H       
  36 H36            4.0591    -5.8736    -0.8531 H       
  37 H37            3.0870    -8.2699    -0.6694 H       
  38 H38            5.3510    -7.4352    -1.6019 H       
  39 H39            6.0123    -7.8031     0.0092 H       
  40 H40            6.1625    -9.6706    -1.7747 H       
  41 H41            5.4928   -10.1217    -0.1886 H       
  42 H42            3.3912    -9.1019    -1.9265 H       
  43 H43            4.2585   -10.4391    -2.7188 H       
  44 H44            2.5447   -11.4981    -1.4428 H       
  45 H45            4.0215   -11.6926    -0.4680 H       
  46 H46            2.1440    -9.3340    -0.0831 H       
  47 H47            1.8996   -10.8782     0.7679 H       
  48 H48            3.3991   -10.1851     2.3101 H       
  49 H49            4.6538   -10.2780     1.0511 H       
  50 H50            4.7645    -8.0357     1.8539 H       
  51 H51            2.9921    -7.8744     1.8854 H       
  52 Cl52          11.1625     8.1306     9.4219 Cl      
  53 H53           11.1625     9.5006     9.4219 H       
@<TRIPOS>BOND
   1    1    2 1
   2    1    3 2
   3    1    4 am
   4    2    5 1
   5    2   25 1
   6    2   26 1
   7    4   27 1
   8    4   28 1
   9    5    6 1
  10    6    7 ar
  11    6   11 ar
  12    7    8 ar
  13    7   24 1
  14    8    9 ar
  15    8   29 1
  16    9   10 ar
  17    9   14 1
  18   10   11 ar
  19   10   30 1
  20   11   12 1
  21   12   13 1
  22   13   31 1
  23   13   32 1
  24   13   33 1
  25   14   15 1
  26   14   34 1
  27   14   35 1
  28   15   16 1
  29   15   36 1
  30   16   17 1
  31   16   23 1
  32   16   37 1
  33   17   18 1
  34   17   38 1
  35   17   39 1
  36   18   19 1
  37   18   40 1
  38   18   41 1
  39   19   20 1
  40   19   42 1
  41   19   43 1
  42   20   21 1
  43   20   44 1
  44   20   45 1
  45   21   22 1
  46   21   46 1
  47   21   47 1
  48   22   23 1
  49   22   48 1
  50   22   49 1
  51   23   50 1
  52   23   51 1
  53   52   53 1

#	End of record

