#	Name: ASD01917646
#	Creating user name:	WinNT
#	Creation time:	15. 06. 2019 20:09

#	Modifying user name:	WinNT
#	Modification time:	15. 06. 2019 20:09

#	Program:	/corina/corina34_cracker 3.40 0067  02.08.2006

@<TRIPOS>MOLECULE
ASD01917646
  61   65    0    0    0
SMALL
NO_CHARGES


@<TRIPOS>ATOM
   1 C1            -0.0166     1.3751     0.0096 C.ar    
   2 C2             0.0021    -0.0041     0.0020 C.ar    
   3 C3             1.2192    -0.6830    -0.0133 C.ar    
   4 C4             2.4140     0.0345    -0.0209 C.ar    
   5 C5             1.2428    -2.1665    -0.0210 C.2     
   6 N6             0.1655    -2.9776    -0.0150 N.2     
   7 C7             2.3534    -2.9484    -0.0413 C.2     
   8 N8             1.9200    -4.2478    -0.0421 N.pl3   
   9 C9             0.5615    -4.2198    -0.0258 C.2     
  10 C10            2.7278    -5.3936    -0.0604 C.ar    
  11 C11            3.7465    -5.5116    -0.9962 C.ar    
  12 C12            4.5409    -6.6413    -1.0115 C.ar    
  13 C13            3.3120    -7.5372     0.8408 C.ar    
  14 C14            2.5143    -6.4098     0.8609 C.ar    
  15 C15           -0.3402    -5.4273    -0.0199 C.3     
  16 C16           -0.6237    -5.8355     1.4028 C.2     
  17 N17           -1.4135    -6.8983     1.6543 N.am    
  18 O18           -0.1411    -5.2077     2.3215 O.2     
  19 C19           -1.7031    -7.3137     3.0351 C.3     
  20 C20           -2.0137    -7.6696     0.5552 C.3     
  21 C21           -3.5185    -7.7974     0.8152 C.3     
  22 N22           -3.7347    -8.3560     2.1565 N.3     
  23 C23           -3.2207    -7.4562     3.1925 C.3     
  24 C24           -5.0792    -8.6387     2.3676 C.ar    
  25 N25           -5.9595    -8.3936     1.4095 N.ar    
  26 C26           -5.4871    -9.1822     3.5817 C.ar    
  27 C27           -6.8278    -9.4591     3.7781 C.ar    
  28 C28           -7.7193    -9.1821     2.7498 C.ar    
  29 C29           -7.2446    -8.6477     1.5691 C.ar    
  30 C30            4.3225    -7.6542    -0.0959 C.ar    
  31 O31            1.1534     3.4458     0.0100 O.3     
  32 C32            2.3888     1.4136    -0.0133 C.ar    
  33 C33            1.1751     2.0869     0.0020 C.ar    
  34 C34           -0.1300     4.0741     0.0257 C.3     
  35 H35           -0.9595     1.9018     0.0169 H       
  36 H36           -0.9254    -0.5573     0.0083 H       
  37 H37            3.3587    -0.4888    -0.0324 H       
  38 H38            3.3793    -2.6110    -0.0542 H       
  39 H39            3.9173    -4.7209    -1.7118 H       
  40 H40            5.3333    -6.7338    -1.7395 H       
  41 H41            3.1463    -8.3282     1.5573 H       
  42 H42            1.7252    -6.3190     1.5927 H       
  43 H43           -1.2767    -5.1839    -0.5215 H       
  44 H44            0.1494    -6.2488    -0.5429 H       
  45 H45           -1.2224    -8.2708     3.2380 H       
  46 H46           -1.3321    -6.5600     3.7297 H       
  47 H47           -1.8481    -7.1511    -0.3892 H       
  48 H48           -1.5635    -8.6615     0.5154 H       
  49 H49           -3.9834    -6.8136     0.7516 H       
  50 H50           -3.9615    -8.4583     0.0702 H       
  51 H51           -3.4429    -7.8696     4.1763 H       
  52 H52           -3.6934    -6.4791     3.0929 H       
  53 H53           -4.7665    -9.3855     4.3601 H       
  54 H54           -7.1737    -9.8815     4.7099 H       
  55 H55           -8.7728    -9.3866     2.8714 H       
  56 H56           -7.9345    -8.4305     0.7670 H       
  57 H57            4.9447    -8.5369    -0.1099 H       
  58 H58            3.3144     1.9701    -0.0188 H       
  59 H59           -0.6906     3.7774    -0.8607 H       
  60 H60           -0.6738     3.7673     0.9191 H       
  61 H61           -0.0044     5.1568     0.0307 H       
@<TRIPOS>BOND
   1    1    2 ar
   2    1   33 ar
   3    1   35 1
   4    2    3 ar
   5    2   36 1
   6    3    4 ar
   7    3    5 1
   8    4   32 ar
   9    4   37 1
  10    5    6 1
  11    5    7 2
  12    6    9 2
  13    7    8 1
  14    7   38 1
  15    8    9 1
  16    8   10 1
  17    9   15 1
  18   10   11 ar
  19   10   14 ar
  20   11   12 ar
  21   11   39 1
  22   12   30 ar
  23   12   40 1
  24   13   14 ar
  25   13   30 ar
  26   13   41 1
  27   14   42 1
  28   15   16 1
  29   15   43 1
  30   15   44 1
  31   16   17 am
  32   16   18 2
  33   17   19 1
  34   17   20 1
  35   19   23 1
  36   19   45 1
  37   19   46 1
  38   20   21 1
  39   20   47 1
  40   20   48 1
  41   21   22 1
  42   21   49 1
  43   21   50 1
  44   22   23 1
  45   22   24 1
  46   23   51 1
  47   23   52 1
  48   24   25 ar
  49   24   26 ar
  50   25   29 ar
  51   26   27 ar
  52   26   53 1
  53   27   28 ar
  54   27   54 1
  55   28   29 ar
  56   28   55 1
  57   29   56 1
  58   30   57 1
  59   31   34 1
  60   31   33 1
  61   32   33 ar
  62   32   58 1
  63   34   59 1
  64   34   60 1
  65   34   61 1

#	End of record

