#	Name: ASD01880383
#	Creating user name:	WinNT
#	Creation time:	15. 06. 2019 19:40

#	Modifying user name:	WinNT
#	Modification time:	15. 06. 2019 19:40

#	Program:	/corina/corina34_cracker 3.40 0067  02.08.2006

@<TRIPOS>MOLECULE
ASD01880383
  40   42    0    0    0
SMALL
NO_CHARGES


@<TRIPOS>ATOM
   1 C1            -0.0158     1.3166     0.0093 C.ar    
   2 N2             0.0021    -0.0041     0.0020 N.ar    
   3 C3             1.1445    -0.6746    -0.0125 C.ar    
   4 C4             2.3648     0.0485    -0.0202 C.ar    
   5 C5             2.2891     1.4440    -0.0120 C.ar    
   6 N6             1.0857     2.0309     0.0026 N.ar    
   7 C7             3.7373    -0.4211    -0.0353 C.2     
   8 C8             4.6485     0.5323    -0.0385 C.2     
   9 S9             3.9102     2.1228    -0.0232 S.3     
  10 C10            6.1352     0.2862    -0.0535 C.3     
  11 N11            1.1474    -2.0578    -0.0195 N.pl3   
  12 C12            6.6251     0.2107    -1.5010 C.3     
  13 C13           -0.1198    -2.7930    -0.0109 C.3     
  14 C14            0.1629    -4.2966    -0.0212 C.3     
  15 C15           -1.1532    -5.0614     0.1134 C.3     
  16 C16           -1.9619    -4.9190    -1.1485 C.2     
  17 C17           -1.3557    -4.8612    -2.3283 C.2     
  18 C18            0.1155    -4.9334    -2.3992 C.2     
  19 C19            0.8428    -4.6688    -1.3123 C.2     
  20 O20            0.7273    -5.2673    -3.5658 O.3     
  21 C21            2.1555    -5.3170    -3.5582 C.3     
  22 H22           -0.9682     1.8258     0.0165 H       
  23 H23            3.9931    -1.4704    -0.0429 H       
  24 H24            6.6437     1.1022     0.4601 H       
  25 H25            6.3530    -0.6539     0.4533 H       
  26 H26            1.9884    -2.5410    -0.0301 H       
  27 H27            6.1166    -0.6053    -2.0145 H       
  28 H28            6.4073     1.1508    -2.0078 H       
  29 H29            7.7004     0.0327    -1.5118 H       
  30 H30           -0.6832    -2.5354     0.8859 H       
  31 H31           -0.7005    -2.5264    -0.8939 H       
  32 H32            0.8149    -4.5482     0.8153 H       
  33 H33           -0.9424    -6.1159     0.2910 H       
  34 H34           -1.7202    -4.6607     0.9537 H       
  35 H35           -3.0392    -4.8641    -1.0939 H       
  36 H36           -1.9378    -4.7619    -3.2325 H       
  37 H37            1.9205    -4.7217    -1.3585 H       
  38 H38            2.5517    -4.3377    -3.2895 H       
  39 H39            2.4894    -6.0563    -2.8303 H       
  40 H40            2.5146    -5.5948    -4.5492 H       
@<TRIPOS>BOND
   1    1    2 ar
   2    1    6 ar
   3    1   22 1
   4    2    3 ar
   5    3    4 ar
   6    3   11 1
   7    4    5 ar
   8    4    7 1
   9    5    6 ar
  10    5    9 1
  11    7    8 2
  12    7   23 1
  13    8    9 1
  14    8   10 1
  15   10   12 1
  16   10   24 1
  17   10   25 1
  18   11   13 1
  19   11   26 1
  20   12   27 1
  21   12   28 1
  22   12   29 1
  23   13   14 1
  24   13   30 1
  25   13   31 1
  26   14   15 1
  27   14   19 1
  28   14   32 1
  29   15   16 1
  30   15   33 1
  31   15   34 1
  32   16   17 2
  33   16   35 1
  34   17   18 1
  35   17   36 1
  36   18   19 2
  37   18   20 1
  38   19   37 1
  39   20   21 1
  40   21   38 1
  41   21   39 1
  42   21   40 1

#	End of record

