#	Name: ASD01200039
#	Creating user name:	WinNT
#	Creation time:	15. 06. 2019 19:08

#	Modifying user name:	WinNT
#	Modification time:	15. 06. 2019 19:08

#	Program:	/corina/corina34_cracker 3.40 0067  02.08.2006

@<TRIPOS>MOLECULE
ASD01200039
  34   35    0    0    0
SMALL
NO_CHARGES


@<TRIPOS>ATOM
   1 C1             0.0575     1.2430    -0.0232 C.ar    
   2 C2            -0.0983    -0.0827     0.3633 C.ar    
   3 C3            -1.3534    -0.6546     0.4047 C.ar    
   4 C4            -2.4717     0.0927     0.0591 C.ar    
   5 C5            -2.3207     1.4320    -0.3320 C.ar    
   6 C6            -1.0456     2.0027    -0.3649 C.ar    
   7 C7            -3.5012     2.2338    -0.7007 C.2     
   8 N8            -3.3688     3.5510    -0.9538 N.am    
   9 C9            -4.4813     4.3066    -1.3013 C.2     
  10 N10           -4.4641     5.5761    -1.5640 N.2     
  11 C11           -5.6171     6.1369    -1.8776 C.2     
  12 C12           -6.6579     5.3018    -1.8799 C.2     
  13 S13           -6.0713     3.6966    -1.4519 S.3     
  14 O14           -4.5946     1.7070    -0.7765 O.2     
  15 C15           -5.7477     7.6019    -2.2059 C.3     
  16 O16            1.2992     1.7967    -0.0601 O.3     
  17 N17           -3.7368    -0.4843     0.1001 N.pl3   
  18 C18            2.3948     0.9577     0.3110 C.3     
  19 C19            3.7004     1.7489     0.2088 C.3     
  20 H20            0.7680    -0.6688     0.6324 H       
  21 H21           -1.4663    -1.6856     0.7061 H       
  22 H22           -0.9213     3.0328    -0.6645 H       
  23 H23           -2.4967     3.9712    -0.8934 H       
  24 H24           -7.6805     5.5634    -2.1082 H       
  25 H25           -5.6106     7.7477    -3.2774 H       
  26 H26           -6.7380     7.9525    -1.9153 H       
  27 H27           -4.9889     8.1650    -1.6626 H       
  28 H28           -3.8327    -1.4476     0.0386 H       
  29 H29           -4.5230     0.0767     0.1900 H       
  30 H30            2.2579     0.6135     1.3361 H       
  31 H31            2.4374     0.0984    -0.3582 H       
  32 H32            3.8373     2.0931    -0.8163 H       
  33 H33            3.6579     2.6082     0.8780 H       
  34 H34            4.5362     1.1089     0.4918 H       
@<TRIPOS>BOND
   1    1    2 ar
   2    1   16 1
   3    1    6 ar
   4    2    3 ar
   5    2   20 1
   6    3    4 ar
   7    3   21 1
   8    4    5 ar
   9    4   17 1
  10    5    6 ar
  11    5    7 1
  12    6   22 1
  13    7    8 am
  14    7   14 2
  15    8    9 1
  16    8   23 1
  17    9   10 2
  18    9   13 1
  19   10   11 1
  20   11   12 2
  21   11   15 1
  22   12   13 1
  23   12   24 1
  24   15   25 1
  25   15   26 1
  26   15   27 1
  27   16   18 1
  28   17   28 1
  29   17   29 1
  30   18   19 1
  31   18   30 1
  32   18   31 1
  33   19   32 1
  34   19   33 1
  35   19   34 1

#	End of record

