#	Name: ASD06710011
#	Creating user name:	WinNT
#	Creation time:	15. 06. 2019 21:08

#	Modifying user name:	WinNT
#	Modification time:	15. 06. 2019 21:08

#	Program:	/corina/corina34_cracker 3.40 0067  02.08.2006

@<TRIPOS>MOLECULE
ASD06710011
  51   54    0    0    0
SMALL
NO_CHARGES


@<TRIPOS>ATOM
   1 O1             0.1801    -0.0007    -0.0016 O.2     
   2 C2             0.1388     1.2061     0.0055 C.2     
   3 C3             1.4094     2.0277     0.0062 C.3     
   4 C4             1.3284     3.0388     1.1536 C.3     
   5 C5             0.0492     3.8695     1.0165 C.3     
   6 C6            -1.1755     2.9637     1.1535 C.3     
   7 C7            -1.1837     1.9381     0.0076 C.3     
   8 C8            -2.4533     3.8020     1.0640 C.3     
   9 C9            -2.4599     4.8601     2.1679 C.3     
  10 C10           -1.2461     5.7753     1.9940 C.3     
  11 C11            0.0322     4.9328     2.1170 C.3     
  12 C12            1.2857     5.7963     2.0239 C.3     
  13 C13            1.2603     6.9357     3.0565 C.3     
  14 C14            0.0021     7.7436     2.8053 C.3     
  15 C15           -1.2092     6.8170     3.0962 C.3     
  16 C16           -2.3692     7.8187     3.1094 C.3     
  17 C17           -1.7764     9.0271     3.8842 C.3     
  18 C18           -0.2380     8.9352     3.7263 C.3     
  19 O19            0.2711    10.1312     3.1326 O.3     
  20 C20           -0.0358     8.2017     1.3459 C.3     
  21 C21            0.0285     4.5520    -0.3527 C.3     
  22 H22            2.2693     1.3741     0.1526 H       
  23 H23            1.5059     2.5557    -0.9424 H       
  24 H24            1.3159     2.5075     2.1054 H       
  25 H25            2.1953     3.6985     1.1179 H       
  26 H26           -1.1400     2.4440     2.1110 H       
  27 H27           -1.3233     2.4534    -0.9427 H       
  28 H28           -1.9940     1.2254     0.1612 H       
  29 H29           -2.4969     4.2929     0.0917 H       
  30 H30           -3.3212     3.1528     1.1796 H       
  31 H31           -3.3738     5.4505     2.1012 H       
  32 H32           -2.4112     4.3715     3.1411 H       
  33 H33           -1.2810     6.2570     1.0168 H       
  34 H34            0.0333     4.4345     3.0864 H       
  35 H35            2.1620     5.1731     2.2021 H       
  36 H36            1.3509     6.2235     1.0232 H       
  37 H37            1.2403     6.5221     4.0648 H       
  38 H38            2.1387     7.5689     2.9318 H       
  39 H39           -1.0968     6.3364     4.0680 H       
  40 H40           -2.6410     8.1073     2.0940 H       
  41 H41           -3.2289     7.4062     3.6374 H       
  42 H42           -2.1410     9.9611     3.4565 H       
  43 H43           -2.0488     8.9660     4.9378 H       
  44 H44            0.2315     8.7641     4.6950 H       
  45 H45            0.1109    10.9288     3.6552 H       
  46 H46            0.0374     7.3337     0.6907 H       
  47 H47           -0.9727     8.7244     1.1534 H       
  48 H48            0.8010     8.8733     1.1541 H       
  49 H49            0.0558     3.7950    -1.1365 H       
  50 H50           -0.8820     5.1432    -0.4502 H       
  51 H51            0.8969     5.2039    -0.4469 H       
@<TRIPOS>BOND
   1    1    2 2
   2    2    3 1
   3    2    7 1
   4    3    4 1
   5    3   22 1
   6    3   23 1
   7    4    5 1
   8    4   24 1
   9    4   25 1
  10    5   21 1
  11    5    6 1
  12    5   11 1
  13    6    7 1
  14    6    8 1
  15    6   26 1
  16    7   27 1
  17    7   28 1
  18    8    9 1
  19    8   29 1
  20    8   30 1
  21    9   10 1
  22    9   31 1
  23    9   32 1
  24   10   11 1
  25   10   15 1
  26   10   33 1
  27   11   12 1
  28   11   34 1
  29   12   13 1
  30   12   35 1
  31   12   36 1
  32   13   14 1
  33   13   37 1
  34   13   38 1
  35   14   20 1
  36   14   15 1
  37   14   18 1
  38   15   16 1
  39   15   39 1
  40   16   17 1
  41   16   40 1
  42   16   41 1
  43   17   18 1
  44   17   42 1
  45   17   43 1
  46   18   19 1
  47   18   44 1
  48   19   45 1
  49   20   46 1
  50   20   47 1
  51   20   48 1
  52   21   49 1
  53   21   50 1
  54   21   51 1

#	End of record

