#	Name: ASD02030387
#	Creating user name:	WinNT
#	Creation time:	15. 06. 2019 20:15

#	Modifying user name:	WinNT
#	Modification time:	15. 06. 2019 20:15

#	Program:	/corina/corina34_cracker 3.40 0067  02.08.2006

@<TRIPOS>MOLECULE
ASD02030387
  49   51    0    0    0
SMALL
NO_CHARGES


@<TRIPOS>ATOM
   1 N1            -0.0802     1.4419     0.1817 N.am    
   2 C2            -0.0436     0.0978     0.2744 C.2     
   3 C3            -1.3006    -0.6701     0.3674 C.ar    
   4 O4             1.0251    -0.4822     0.2813 O.2     
   5 C5            -1.2648    -2.0637     0.4635 C.ar    
   6 C6            -2.4400    -2.7765     0.5500 C.ar    
   7 C7            -3.6604    -2.1117     0.5414 C.ar    
   8 C8            -3.7004    -0.7257     0.4460 C.ar    
   9 C9            -2.5296    -0.0051     0.3653 C.ar    
  10 O10           -4.8167    -2.8180     0.6260 O.3     
  11 C11           -5.5833    -2.8720    -0.4814 C.2     
  12 N12           -6.7956    -3.4590    -0.4339 N.am    
  13 S13           -5.0171    -2.1947    -1.9483 S.2     
  14 C14           -7.6287    -3.5176    -1.6375 C.3     
  15 C15           -7.2801    -4.0385     0.8214 C.3     
  16 C16            1.1092     2.1762     0.1962 C.ar    
  17 C17            2.2480     1.6628    -0.4354 C.ar    
  18 C18            3.4180     2.3549    -0.4366 C.ar    
  19 C19            3.4936     3.6045     0.2025 C.ar    
  20 C20            2.3449     4.1325     0.8442 C.ar    
  21 C21            1.1471     3.4003     0.8270 C.ar    
  22 C22           -7.3204    -4.8023    -2.4091 C.3     
  23 C23           -8.0472    -2.9760     1.6110 C.3     
  24 C24            4.6900     4.3419     0.2176 C.ar    
  25 C25            4.7302     5.5487     0.8456 C.ar    
  26 C26            3.6010     6.0677     1.4764 C.ar    
  27 C27            2.4252     5.3826     1.4826 C.ar    
  28 H28           -0.9317     1.8994     0.1010 H       
  29 H29           -0.3168    -2.5811     0.4695 H       
  30 H30           -2.4131    -3.8536     0.6243 H       
  31 H31           -4.6509    -0.2128     0.4393 H       
  32 H32           -2.5615     1.0719     0.2916 H       
  33 H33           -8.6806    -3.5089    -1.3520 H       
  34 H34           -7.4164    -2.6548    -2.2687 H       
  35 H35           -7.9415    -4.8770     0.6030 H       
  36 H36           -6.4327    -4.3882     1.4111 H       
  37 H37            2.1965     0.7032    -0.9283 H       
  38 H38            4.2882     1.9451    -0.9277 H       
  39 H39            0.2642     3.7901     1.3117 H       
  40 H40           -6.2685    -4.8110    -2.6946 H       
  41 H41           -7.5327    -5.6651    -1.7779 H       
  42 H42           -7.9403    -4.8459    -3.3046 H       
  43 H43           -8.4077    -3.4072     2.5449 H       
  44 H44           -7.3858    -2.1376     1.8294 H       
  45 H45           -8.8946    -2.6263     1.0213 H       
  46 H46            5.5734     3.9525    -0.2666 H       
  47 H47            5.6513     6.1125     0.8555 H       
  48 H48            3.6600     7.0276     1.9678 H       
  49 H49            1.5581     5.7970     1.9754 H       
@<TRIPOS>BOND
   1    1    2 am
   2    1   16 1
   3    1   28 1
   4    2    3 1
   5    2    4 2
   6    3    5 ar
   7    3    9 ar
   8    5    6 ar
   9    5   29 1
  10    6    7 ar
  11    6   30 1
  12    7    8 ar
  13    7   10 1
  14    8    9 ar
  15    8   31 1
  16    9   32 1
  17   10   11 1
  18   11   12 am
  19   11   13 2
  20   12   14 1
  21   12   15 1
  22   14   22 1
  23   14   33 1
  24   14   34 1
  25   15   23 1
  26   15   35 1
  27   15   36 1
  28   16   17 ar
  29   16   21 ar
  30   17   18 ar
  31   17   37 1
  32   18   19 ar
  33   18   38 1
  34   19   20 ar
  35   19   24 ar
  36   20   21 ar
  37   20   27 ar
  38   21   39 1
  39   22   40 1
  40   22   41 1
  41   22   42 1
  42   23   43 1
  43   23   44 1
  44   23   45 1
  45   24   25 ar
  46   24   46 1
  47   25   26 ar
  48   25   47 1
  49   26   27 ar
  50   26   48 1
  51   27   49 1

#	End of record

