#	Name: ASD01813486
#	Creating user name:	WinNT
#	Creation time:	15. 06. 2019 19:30

#	Modifying user name:	WinNT
#	Modification time:	15. 06. 2019 19:30

#	Program:	/corina/corina34_cracker 3.40 0067  02.08.2006

@<TRIPOS>MOLECULE
ASD01813486
  50   53    0    0    0
SMALL
NO_CHARGES


@<TRIPOS>ATOM
   1 C1            -0.5950     0.6186     0.3056 C.ar    
   2 C2            -0.3320    -0.7424     0.2490 C.ar    
   3 C3             0.9642    -1.2062     0.1605 C.ar    
   4 C4             2.0258    -0.3024     0.1273 C.ar    
   5 C5             1.7547     1.0748     0.1849 C.ar    
   6 C6             0.4387     1.5284     0.2743 C.ar    
   7 N7             3.3262    -0.7523     0.0401 N.pl3   
   8 C8             4.3789     0.0741     0.0064 C.2     
   9 C9             4.2387     1.4466     0.0570 C.2     
  10 C10            2.8864     2.0200     0.1490 C.2     
  11 O11            2.7093     3.2247     0.1960 O.2     
  12 C12            5.4198     2.3203     0.0186 C.2     
  13 O13            5.2698     3.6591     0.0686 O.3     
  14 O14            6.5321     1.8358    -0.0583 O.2     
  15 C15            3.5661    -2.1963    -0.0178 C.3     
  16 C16            3.4265    -2.6721    -1.4409 C.ar    
  17 N17            2.2316    -2.9757    -1.9095 N.ar    
  18 C18            2.0558    -3.3959    -3.1457 C.ar    
  19 C19            3.1409    -3.5353    -4.0084 C.ar    
  20 C20            4.4205    -3.2214    -3.5414 C.ar    
  21 C21            4.5527    -2.7782    -2.2369 C.ar    
  22 C22            2.9416    -4.0095    -5.3999 C.ar    
  23 F23            1.2050    -2.5345     0.1065 F       
  24 C24            1.6611    -4.3202    -5.8548 C.ar    
  25 C25            1.4782    -4.7603    -7.1485 C.ar    
  26 C26            2.5693    -4.8948    -7.9986 C.ar    
  27 C27            3.8468    -4.5857    -7.5472 C.ar    
  28 C28            4.0338    -4.1397    -6.2561 C.ar    
  29 N29            2.3815    -5.3422    -9.3100 N.am    
  30 C30            1.2767    -4.9826    -9.9930 C.2     
  31 C31            1.1236    -5.3764   -11.4396 C.3     
  32 O32            0.4056    -4.3421    -9.4434 O.2     
  33 H33           -1.6154     0.9666     0.3702 H       
  34 H34           -1.1507    -1.4463     0.2747 H       
  35 H35            0.2313     2.5874     0.3182 H       
  36 H36            5.3711    -0.3470    -0.0622 H       
  37 H37            6.0759     4.1925     0.0405 H       
  38 H38            4.5728    -2.4120     0.3402 H       
  39 H39            2.8391    -2.7109     0.6103 H       
  40 H40            1.0616    -3.6349    -3.4933 H       
  41 H41            5.2834    -3.3180    -4.1836 H       
  42 H42            5.5259    -2.5264    -1.8419 H       
  43 H43            0.8129    -4.2165    -5.1942 H       
  44 H44            0.4863    -5.0011    -7.5013 H       
  45 H45            4.6934    -4.6913    -8.2095 H       
  46 H46            5.0267    -3.8993    -5.9059 H       
  47 H47            3.0464    -5.9114    -9.7282 H       
  48 H48            1.9992    -5.9429   -11.7565 H       
  49 H49            0.2312    -5.9912   -11.5563 H       
  50 H50            1.0297    -4.4797   -12.0522 H       
@<TRIPOS>BOND
   1    1    2 ar
   2    1    6 ar
   3    1   33 1
   4    2    3 ar
   5    2   34 1
   6    3    4 ar
   7    3   23 1
   8    4    5 ar
   9    4    7 1
  10    5    6 ar
  11    5   10 1
  12    6   35 1
  13    7    8 1
  14    7   15 1
  15    8    9 2
  16    8   36 1
  17    9   10 1
  18    9   12 1
  19   10   11 2
  20   12   13 1
  21   12   14 2
  22   13   37 1
  23   15   16 1
  24   15   38 1
  25   15   39 1
  26   16   17 ar
  27   16   21 ar
  28   17   18 ar
  29   18   19 ar
  30   18   40 1
  31   19   20 ar
  32   19   22 1
  33   20   21 ar
  34   20   41 1
  35   21   42 1
  36   22   24 ar
  37   22   28 ar
  38   24   25 ar
  39   24   43 1
  40   25   26 ar
  41   25   44 1
  42   26   27 ar
  43   26   29 1
  44   27   28 ar
  45   27   45 1
  46   28   46 1
  47   29   30 am
  48   29   47 1
  49   30   31 1
  50   30   32 2
  51   31   48 1
  52   31   49 1
  53   31   50 1

#	End of record

