#	Name: ASD01882741
#	Creating user name:	WinNT
#	Creation time:	15. 06. 2019 19:45

#	Modifying user name:	WinNT
#	Modification time:	15. 06. 2019 19:45

#	Program:	/corina/corina34_cracker 3.40 0067  02.08.2006

@<TRIPOS>MOLECULE
ASD01882741
  36   38    0    0    0
SMALL
NO_CHARGES


@<TRIPOS>ATOM
   1 N1            -0.0165     1.3692     0.0096 N.pl3   
   2 O2             1.1412    -0.7243    -0.0127 O.3     
   3 C3             0.0021    -0.0041     0.0020 C.2     
   4 N4            -1.0753    -0.7270     0.0089 N.2     
   5 C5            -0.6823    -2.1496     0.0076 C.3     
   6 C6             0.8153    -2.0697     0.3922 C.3     
   7 C7             1.6390    -3.0940    -0.3909 C.3     
   8 O8             3.0178    -2.9666    -0.0377 O.3     
   9 C9             5.6723    -5.5276    -1.8930 C.ar    
  10 C10            6.1346    -4.5923    -0.9688 C.ar    
  11 C11            5.2455    -3.7385    -0.3504 C.ar    
  12 C12            3.8914    -3.8094    -0.6482 C.ar    
  13 C13            3.4280    -4.7400    -1.5684 C.ar    
  14 C14            4.3122    -5.5967    -2.1897 C.ar    
  15 C15            6.6270    -6.4435    -2.5645 C.ar    
  16 C16            6.1661    -7.3791    -3.4887 C.ar    
  17 C17            7.0587    -8.2286    -4.1103 C.ar    
  18 C18            8.4085    -8.1526    -3.8175 C.ar    
  19 C19            8.8714    -7.2258    -2.9009 C.ar    
  20 C20            7.9886    -6.3675    -2.2776 C.ar    
  21 H21            0.8168     1.8655     0.0043 H       
  22 H22           -0.8631     1.8427     0.0162 H       
  23 H23           -1.2463    -2.7101     0.7532 H       
  24 H24           -0.8071    -2.5872    -0.9829 H       
  25 H25            0.9511    -2.1991     1.4659 H       
  26 H26            1.2935    -4.0992    -0.1495 H       
  27 H27            1.5198    -2.9156    -1.4596 H       
  28 H28            7.1879    -4.5367    -0.7366 H       
  29 H29            5.6031    -3.0136     0.3659 H       
  30 H30            2.3740    -4.7933    -1.7976 H       
  31 H31            3.9512    -6.3202    -2.9056 H       
  32 H32            5.1125    -7.4396    -3.7178 H       
  33 H33            6.7026    -8.9543    -4.8265 H       
  34 H34            9.1034    -8.8195    -4.3060 H       
  35 H35            9.9263    -7.1708    -2.6760 H       
  36 H36            8.3517    -5.6410    -1.5657 H       
@<TRIPOS>BOND
   1    1    3 1
   2    1   21 1
   3    1   22 1
   4    2    3 1
   5    2    6 1
   6    3    4 2
   7    4    5 1
   8    5    6 1
   9    5   23 1
  10    5   24 1
  11    6    7 1
  12    6   25 1
  13    7    8 1
  14    7   26 1
  15    7   27 1
  16    8   12 1
  17    9   10 ar
  18    9   14 ar
  19    9   15 1
  20   10   11 ar
  21   10   28 1
  22   11   12 ar
  23   11   29 1
  24   12   13 ar
  25   13   14 ar
  26   13   30 1
  27   14   31 1
  28   15   16 ar
  29   15   20 ar
  30   16   17 ar
  31   16   32 1
  32   17   18 ar
  33   17   33 1
  34   18   19 ar
  35   18   34 1
  36   19   20 ar
  37   19   35 1
  38   20   36 1

#	End of record

