#	Name: ASD08150539
#	Creating user name:	WinNT
#	Creation time:	15. 06. 2019 21:16

#	Modifying user name:	WinNT
#	Modification time:	15. 06. 2019 21:16

#	Program:	/corina/corina34_cracker 3.40 0067  02.08.2006

@<TRIPOS>MOLECULE
ASD08150539
  30   32    0    0    0
SMALL
NO_CHARGES


@<TRIPOS>ATOM
   1 N1            -0.0155     1.2942     0.0092 N.2     
   2 C2             0.0021    -0.0041     0.0020 C.2     
   3 N3             1.1490    -0.7360    -0.0129 N.am    
   4 C4             2.3562    -0.1242    -0.0206 C.2     
   5 C5             2.3701     1.3458    -0.0129 C.ar    
   6 C6             3.5601     2.0713    -0.0203 C.ar    
   7 C7             3.5163     3.4481    -0.0130 C.ar    
   8 C8             2.2989     4.1163     0.0016 C.ar    
   9 C9             1.1110     3.4184     0.0092 C.ar    
  10 C10            1.1297     2.0210     0.0021 C.ar    
  11 O11            3.3904    -0.7663    -0.0331 O.2     
  12 C12            1.0796    -2.1352    -0.0197 C.ar    
  13 C13            1.0566    -2.8374     1.1796 C.ar    
  14 C14            0.9877    -4.2175     1.1688 C.ar    
  15 C15            0.9421    -4.8994    -0.0336 C.ar    
  16 C16            0.9654    -4.2033    -1.2279 C.ar    
  17 C17            1.0280    -2.8232    -1.2242 C.ar    
  18 Cl18           1.1150    -1.9818     2.6890 Cl      
  19 C19           -1.3144    -0.7374     0.0112 C.3     
  20 Cl20          -2.6665     0.4552     0.0310 Cl      
  21 Cl21          -0.4013     4.2706     0.0281 Cl      
  22 H22            4.5101     1.5576    -0.0314 H       
  23 H23            4.4368     4.0130    -0.0184 H       
  24 H24            2.2831     5.1961     0.0075 H       
  25 H25            0.9698    -4.7642     2.1001 H       
  26 H26            0.8887    -5.9781    -0.0395 H       
  27 H27            0.9304    -4.7390    -2.1650 H       
  28 H28            1.0412    -2.2803    -2.1577 H       
  29 H29           -1.3907    -1.3583    -0.8815 H       
  30 H30           -1.3730    -1.3678     0.8984 H       
@<TRIPOS>BOND
   1    1    2 2
   2    1   10 1
   3    2    3 1
   4    2   19 1
   5    3    4 am
   6    3   12 1
   7    4    5 1
   8    4   11 2
   9    5    6 ar
  10    5   10 ar
  11    6    7 ar
  12    6   22 1
  13    7    8 ar
  14    7   23 1
  15    8    9 ar
  16    8   24 1
  17    9   10 ar
  18    9   21 1
  19   12   13 ar
  20   12   17 ar
  21   13   14 ar
  22   13   18 1
  23   14   15 ar
  24   14   25 1
  25   15   16 ar
  26   15   26 1
  27   16   17 ar
  28   16   27 1
  29   17   28 1
  30   19   20 1
  31   19   29 1
  32   19   30 1

#	End of record

