#	Name: ASD01948102
#	Creating user name:	WinNT
#	Creation time:	15. 06. 2019 20:13

#	Modifying user name:	WinNT
#	Modification time:	15. 06. 2019 20:13

#	Program:	/corina/corina34_cracker 3.40 0067  02.08.2006

@<TRIPOS>MOLECULE
ASD01948102
  41   43    0    0    0
SMALL
NO_CHARGES


@<TRIPOS>ATOM
   1 C1             1.8002     1.4194    -1.0469 C.ar    
   2 C2             1.5985     0.0463    -1.1439 C.ar    
   3 C3             1.7717    -0.5930    -2.3637 C.ar    
   4 C4             2.1437     0.1352    -3.4776 C.ar    
   5 C5             2.3442     1.5000    -3.3790 C.ar    
   6 C6             2.1672     2.1427    -2.1665 C.ar    
   7 N7             1.2223    -0.6887    -0.0143 N.pl3   
   8 C8             3.6318    -2.2826    -0.4412 C.2     
   9 C9             2.3519    -2.8723    -0.2921 C.2     
  10 C10            1.1519    -2.0657    -0.0788 C.2     
  11 C11            6.0305    -2.5390    -0.7992 C.3     
  12 N12            4.6881    -3.1037    -0.6402 N.am    
  13 F13            1.6322     2.0459     0.1382 F       
  14 I14            2.9088     2.5982    -5.0714 I       
  15 C15            2.2379    -4.2686    -0.3510 C.2     
  16 N16            1.0112    -4.8541    -0.2088 N.am    
  17 C17           -0.0979    -4.1217    -0.0123 C.2     
  18 C18           -0.0590    -2.7265     0.0572 C.2     
  19 C19            4.5109    -4.4446    -0.6928 C.2     
  20 N20            3.3408    -5.0042    -0.5463 N.2     
  21 O21            3.7755    -1.0736    -0.3965 O.2     
  22 C22            0.9031    -6.3137    -0.2724 C.3     
  23 O23           -1.1703    -4.6914     0.1085 O.2     
  24 C24            6.6917    -2.4275     0.5504 C.2     
  25 O25            6.1020    -2.7831     1.5432 O.2     
  26 O26            7.9356    -1.9330     0.6496 O.3     
  27 C27            8.5097    -1.8547     1.9810 C.3     
  28 H28            1.6162    -1.6588    -2.4421 H       
  29 H29            2.2785    -0.3624    -4.4266 H       
  30 H30            2.3245     3.2086    -2.0926 H       
  31 H31            1.0109    -0.2306     0.8142 H       
  32 H32            6.6243    -3.1889    -1.4420 H       
  33 H33            5.9574    -1.5497    -1.2509 H       
  34 H34           -0.9682    -2.1657     0.2164 H       
  35 H35            5.3721    -5.0763    -0.8532 H       
  36 H36            1.0204    -6.7307     0.7278 H       
  37 H37           -0.0745    -6.5887    -0.6684 H       
  38 H38            1.6830    -6.7077    -0.9241 H       
  39 H39            8.5558    -2.8530     2.4160 H       
  40 H40            9.5151    -1.4384     1.9192 H       
  41 H41            7.8889    -1.2138     2.6072 H       
@<TRIPOS>BOND
   1    1    2 ar
   2    1   13 1
   3    1    6 ar
   4    2    3 ar
   5    2    7 1
   6    3    4 ar
   7    3   28 1
   8    4    5 ar
   9    4   29 1
  10    5    6 ar
  11    5   14 1
  12    6   30 1
  13    7   10 1
  14    7   31 1
  15    8    9 1
  16    8   21 2
  17    8   12 am
  18    9   10 1
  19    9   15 2
  20   10   18 2
  21   11   12 1
  22   11   24 1
  23   11   32 1
  24   11   33 1
  25   12   19 1
  26   15   16 1
  27   15   20 1
  28   16   17 am
  29   16   22 1
  30   17   18 1
  31   17   23 2
  32   18   34 1
  33   19   20 2
  34   19   35 1
  35   22   36 1
  36   22   37 1
  37   22   38 1
  38   24   25 2
  39   24   26 1
  40   26   27 1
  41   27   39 1
  42   27   40 1
  43   27   41 1

#	End of record

