#	Name: ASD01680099
#	Creating user name:	WinNT
#	Creation time:	15. 06. 2019 19:22

#	Modifying user name:	WinNT
#	Modification time:	15. 06. 2019 19:22

#	Program:	/corina/corina34_cracker 3.40 0067  02.08.2006

@<TRIPOS>MOLECULE
ASD01680099
  80   82    0    0    0
SMALL
NO_CHARGES


@<TRIPOS>ATOM
   1 C1             3.9680    -0.7641     1.1840 C.2     
   2 C2             3.8392    -2.2423     0.9207 C.3     
   3 C3             2.7471    -2.4810    -0.1239 C.3     
   4 O4             5.0175    -0.2026     0.9760 O.2     
   5 O5             2.9153    -0.0702     1.6445 O.3     
   6 N6             5.1145    -2.7624     0.4214 N.am    
   7 S7             6.1981    -3.4454     1.4710 S.o2    
   8 O8             7.3010    -3.8760     0.6853 O.2     
   9 O9             6.3256    -2.5419     2.5603 O.2     
  10 C10            5.4492    -4.9029     2.1186 C.ar    
  11 C11            4.8283    -4.8709     3.3532 C.ar    
  12 C12            4.2408    -6.0145     3.8612 C.ar    
  13 C13            4.2739    -7.1899     3.1344 C.ar    
  14 C14            4.8940    -7.2216     1.8994 C.ar    
  15 C15            5.4777    -6.0770     1.3894 C.ar    
  16 C16            6.1493    -6.1103     0.0408 C.3     
  17 C17            3.6343    -8.4368     3.6887 C.3     
  18 C18            4.7922    -3.5896     4.1455 C.3     
  19 N19            2.7030    -3.9043    -0.4680 N.am    
  20 C20            1.8114    -4.3512    -1.3746 C.2     
  21 O21            1.0456    -3.5750    -1.9056 O.2     
  22 C22            1.7661    -5.8153    -1.7284 C.3     
  23 O23            0.7461    -6.0382    -2.7041 O.3     
  24 N24           -1.7274    -7.7814    -2.8063 N.am    
  25 C25           -0.4186    -8.1483    -2.2356 C.3     
  26 C26            0.6190    -7.4021    -3.1110 C.3     
  27 C27           -0.0284    -7.5050    -4.5173 C.3     
  28 C28           -1.5372    -7.3951    -4.2121 C.3     
  29 C29           -2.3225    -8.3412    -5.1226 C.3     
  30 N30           -3.7491    -8.0157    -5.0510 N.pl3   
  31 C31           -4.6814    -8.8364    -5.6750 C.ar    
  32 C32           -4.2530    -9.9655    -6.3660 C.ar    
  33 C33           -5.1913   -10.7732    -6.9822 C.ar    
  34 C34           -6.5320   -10.4235    -6.8865 C.ar    
  35 C35           -6.8864    -9.2891    -6.1848 C.ar    
  36 N36           -5.9696    -8.5396    -5.6020 N.ar    
  37 C37           -2.9043    -7.8022    -2.1498 C.2     
  38 O38           -3.9302    -7.5267    -2.7352 O.2     
  39 C39           -2.9455    -8.1677    -0.6884 C.3     
  40 C40           -2.4214    -6.9967     0.1452 C.3     
  41 C41           -4.3871    -8.4788    -0.2810 C.3     
  42 H42            3.5752    -2.7546     1.8459 H       
  43 H43            1.7828    -2.1753     0.2822 H       
  44 H44            2.9660    -1.8976    -1.0183 H       
  45 H45            3.0462     0.8755     1.7983 H       
  46 H46            5.3242    -2.7067    -0.5240 H       
  47 H47            3.7563    -5.9897     4.8261 H       
  48 H48            4.9201    -8.1400     1.3317 H       
  49 H49            7.2185    -6.2774     0.1713 H       
  50 H50            5.7256    -6.9179    -0.5563 H       
  51 H51            5.9896    -5.1598    -0.4682 H       
  52 H52            2.5928    -8.4830     3.3707 H       
  53 H53            4.1664    -9.3132     3.3189 H       
  54 H54            3.6811    -8.4159     4.7775 H       
  55 H55            4.0219    -2.9334     3.7403 H       
  56 H56            4.5672    -3.8134     5.1883 H       
  57 H57            5.7615    -3.0951     4.0810 H       
  58 H58            3.3155    -4.5251    -0.0433 H       
  59 H59            2.7303    -6.1210    -2.1346 H       
  60 H60            1.5471    -6.3987    -0.8341 H       
  61 H61           -0.3499    -7.8162    -1.1997 H       
  62 H62           -0.2651    -9.2255    -2.3005 H       
  63 H63            1.5850    -7.9064    -3.0871 H       
  64 H64            0.2974    -6.6817    -5.1530 H       
  65 H65            0.2027    -8.4649    -4.9790 H       
  66 H66           -1.8722    -6.3689    -4.3631 H       
  67 H67           -1.9753    -8.2286    -6.1496 H       
  68 H68           -2.1678    -9.3700    -4.7974 H       
  69 H69           -4.0431    -7.2275    -4.5681 H       
  70 H70           -3.2019   -10.2077    -6.4207 H       
  71 H71           -4.8884   -11.6558    -7.5259 H       
  72 H72           -7.2896   -11.0329    -7.3567 H       
  73 H73           -7.9278    -9.0135    -6.1079 H       
  74 H74           -2.3218    -9.0447    -0.5155 H       
  75 H75           -2.3596    -7.2946     1.1918 H       
  76 H76           -1.4312    -6.7119    -0.2106 H       
  77 H77           -3.0999    -6.1492     0.0481 H       
  78 H78           -4.7605    -9.3131    -0.8748 H       
  79 H79           -4.4169    -8.7432     0.7761 H       
  80 H80           -5.0109    -7.6018    -0.4539 H       
@<TRIPOS>BOND
   1    1    2 1
   2    1    4 2
   3    1    5 1
   4    2    3 1
   5    2    6 1
   6    2   42 1
   7    3   19 1
   8    3   43 1
   9    3   44 1
  10    5   45 1
  11    6    7 am
  12    6   46 1
  13    7    8 2
  14    7    9 2
  15    7   10 1
  16   10   11 ar
  17   10   15 ar
  18   11   12 ar
  19   11   18 1
  20   12   13 ar
  21   12   47 1
  22   13   14 ar
  23   13   17 1
  24   14   15 ar
  25   14   48 1
  26   15   16 1
  27   16   49 1
  28   16   50 1
  29   16   51 1
  30   17   52 1
  31   17   53 1
  32   17   54 1
  33   18   55 1
  34   18   56 1
  35   18   57 1
  36   19   20 am
  37   19   58 1
  38   20   21 2
  39   20   22 1
  40   22   23 1
  41   22   59 1
  42   22   60 1
  43   23   26 1
  44   24   25 1
  45   24   28 1
  46   24   37 am
  47   25   26 1
  48   25   61 1
  49   25   62 1
  50   26   27 1
  51   26   63 1
  52   27   28 1
  53   27   64 1
  54   27   65 1
  55   28   29 1
  56   28   66 1
  57   29   30 1
  58   29   67 1
  59   29   68 1
  60   30   31 1
  61   30   69 1
  62   31   32 ar
  63   31   36 ar
  64   32   33 ar
  65   32   70 1
  66   33   34 ar
  67   33   71 1
  68   34   35 ar
  69   34   72 1
  70   35   36 ar
  71   35   73 1
  72   37   38 2
  73   37   39 1
  74   39   40 1
  75   39   41 1
  76   39   74 1
  77   40   75 1
  78   40   76 1
  79   40   77 1
  80   41   78 1
  81   41   79 1
  82   41   80 1

#	End of record

