#	Name: ASD02560112
#	Creating user name:	WinNT
#	Creation time:	15. 06. 2019 20:24

#	Modifying user name:	WinNT
#	Modification time:	15. 06. 2019 20:24

#	Program:	/corina/corina34_cracker 3.40 0067  02.08.2006

@<TRIPOS>MOLECULE
ASD02560112
  56   59    0    0    0
SMALL
NO_CHARGES


@<TRIPOS>ATOM
   1 N1             0.1614     1.4648     0.1029 N.2     
   2 N2             0.1699     0.2428    -0.0755 N.2     
   3 C3             1.5266     1.9963     0.2055 C.3     
   4 N4             2.3789     0.8054     0.4507 N.3     
   5 C5             1.5425    -0.2771    -0.1264 C.3     
   6 S6             1.6841    -1.7852     0.8717 S.3     
   7 C7             1.0899    -1.2534     2.5011 C.3     
   8 C8             1.1467    -2.4145     3.4600 C.2     
   9 O9             1.5485    -3.4944     3.0815 O.2     
  10 N10            0.7510    -2.2529     4.7382 N.am    
  11 C11            3.5927     0.9125    -0.2247 C.ar    
  12 C12            0.7308    -3.3450     5.6053 C.ar    
  13 C13           -0.2445    -3.4274     6.5960 C.ar    
  14 C14           -0.2671    -4.5047     7.4538 C.ar    
  15 C15            0.6907    -5.5158     7.3286 C.ar    
  16 C16            1.6678    -5.4291     6.3328 C.ar    
  17 C17            1.6811    -4.3521     5.4750 C.ar    
  18 Cl18          -1.4324    -2.1710     6.7504 Cl      
  19 C19            0.6703    -6.6707     8.2453 C.2     
  20 O20           -0.1794    -6.7445     9.1107 O.2     
  21 O21            1.5940    -7.6441     8.1233 O.3     
  22 C22            4.4757     1.9757     0.0617 C.ar    
  23 C23            3.9449    -0.0224    -1.1750 C.ar    
  24 C24            5.1550     0.0753    -1.8548 C.ar    
  25 C25            6.0235     1.0932    -1.6017 C.ar    
  26 C26            5.7047     2.0642    -0.6373 C.ar    
  27 C27            6.5818     3.1261    -0.3559 C.ar    
  28 C28            6.2414     4.0496     0.5842 C.ar    
  29 C29            5.0342     3.9592     1.2742 C.ar    
  30 C30            4.1590     2.9463     1.0249 C.ar    
  31 C31            7.3279     1.1754    -2.3519 C.3     
  32 C32            1.9314     2.6812    -1.1014 C.3     
  33 F33            1.8771     1.7557    -2.1491 F       
  34 C34            8.4334     0.5139    -1.5265 C.3     
  35 H35            1.6006     2.6942     1.0395 H       
  36 H36            1.8356    -0.4744    -1.1576 H       
  37 H37            1.7202    -0.4450     2.8716 H       
  38 H38            0.0615    -0.9024     2.4160 H       
  39 H39            0.4803    -1.3770     5.0550 H       
  40 H40           -1.0232    -4.5683     8.2223 H       
  41 H41            2.4091    -6.2082     6.2337 H       
  42 H42            2.4360    -4.2849     4.7055 H       
  43 H43            1.5402    -8.3811     8.7470 H       
  44 H44            3.2740    -0.8400    -1.3939 H       
  45 H45            5.4099    -0.6687    -2.5950 H       
  46 H46            7.5210     3.2086    -0.8826 H       
  47 H47            6.9172     4.8643     0.7988 H       
  48 H48            4.7878     4.7050     2.0155 H       
  49 H49            3.2268     2.8887     1.5672 H       
  50 H50            7.2305     0.6604    -3.3076 H       
  51 H51            7.5812     2.2210    -2.5267 H       
  52 H52            1.2468     3.5040    -1.3076 H       
  53 H53            2.9466     3.0674    -1.0100 H       
  54 H54            8.5308     1.0289    -0.5707 H       
  55 H55            8.1801    -0.5317    -1.3516 H       
  56 H56            9.3769     0.5734    -2.0690 H       
@<TRIPOS>BOND
   1    1    2 2
   2    1    3 1
   3    2    5 1
   4    3    4 1
   5    3   32 1
   6    3   35 1
   7    4    5 1
   8    4   11 1
   9    5    6 1
  10    5   36 1
  11    6    7 1
  12    7    8 1
  13    7   37 1
  14    7   38 1
  15    8    9 2
  16    8   10 am
  17   10   12 1
  18   10   39 1
  19   11   22 ar
  20   11   23 ar
  21   12   13 ar
  22   12   17 ar
  23   13   14 ar
  24   13   18 1
  25   14   15 ar
  26   14   40 1
  27   15   16 ar
  28   15   19 1
  29   16   17 ar
  30   16   41 1
  31   17   42 1
  32   19   20 2
  33   19   21 1
  34   21   43 1
  35   22   26 ar
  36   22   30 ar
  37   23   24 ar
  38   23   44 1
  39   24   25 ar
  40   24   45 1
  41   25   26 ar
  42   25   31 1
  43   26   27 ar
  44   27   28 ar
  45   27   46 1
  46   28   29 ar
  47   28   47 1
  48   29   30 ar
  49   29   48 1
  50   30   49 1
  51   31   34 1
  52   31   50 1
  53   31   51 1
  54   32   33 1
  55   32   52 1
  56   32   53 1
  57   34   54 1
  58   34   55 1
  59   34   56 1

#	End of record

