#	Name: ASD01880258
#	Creating user name:	WinNT
#	Creation time:	15. 06. 2019 19:40

#	Modifying user name:	WinNT
#	Modification time:	15. 06. 2019 19:40

#	Program:	/corina/corina34_cracker 3.40 0067  02.08.2006

@<TRIPOS>MOLECULE
ASD01880258
  44   46    0    0    0
SMALL
NO_CHARGES


@<TRIPOS>ATOM
   1 C1            -0.0169     1.3973     0.0097 C.2     
   2 C2             0.0021    -0.0041     0.0020 C.2     
   3 C3            -1.2215    -0.7048     0.0099 C.2     
   4 C4            -2.3968    -0.0478     0.0246 C.2     
   5 N5            -2.4614     1.3150     0.0321 N.pl3   
   6 C6            -1.3170     2.0709     0.0319 C.2     
   7 C7            -3.5152     2.1908     0.0459 C.2     
   8 C8            -2.9972     3.4375     0.0471 C.2     
   9 N9            -1.6635     3.3454     0.0395 N.2     
  10 C10           -4.9783     1.8300     0.0568 C.3     
  11 C11            1.2015     2.1497     0.0021 C.1     
  12 N12            2.1680     2.7465    -0.0039 N.1     
  13 C13            1.2870    -0.7373    -0.0146 C.ar    
  14 C14            1.6537    -1.5336     1.0714 C.ar    
  15 C15            2.8529    -2.2151     1.0494 C.ar    
  16 C16            3.6917    -2.1101    -0.0460 C.ar    
  17 C17            3.3341    -1.3225    -1.1259 C.ar    
  18 C18            2.1350    -0.6404    -1.1189 C.ar    
  19 C19            5.0007    -2.8567    -0.0628 C.3     
  20 C20            4.7331    -4.3582     0.0579 C.3     
  21 C21            5.7328    -2.5730    -1.3760 C.3     
  22 C22            5.8653    -2.3966     1.1127 C.3     
  23 C23           -5.5161     1.8375    -1.3756 C.3     
  24 F24           -4.8113     0.9041    -2.1432 F       
  25 F25           -6.8743     1.5025    -1.3654 F       
  26 F26           -5.3544     3.1126    -1.9278 F       
  27 H27           -1.2159    -1.7848     0.0037 H       
  28 H28           -3.3151    -0.6162     0.0303 H       
  29 H29           -3.5653     4.3560     0.0563 H       
  30 H30           -5.1043     0.8364     0.4870 H       
  31 H31           -5.5274     2.5572     0.6549 H       
  32 H32            1.0001    -1.6157     1.9273 H       
  33 H33            3.1379    -2.8315     1.8891 H       
  34 H34            3.9933    -1.2448    -1.9779 H       
  35 H35            1.8568    -0.0262    -1.9626 H       
  36 H36            4.1172    -4.6860    -0.7796 H       
  37 H37            5.6799    -4.8982     0.0458 H       
  38 H38            4.2115    -4.5603     0.9935 H       
  39 H39            5.9235    -1.5033    -1.4619 H       
  40 H40            6.6796    -3.1130    -1.3881 H       
  41 H41            5.1169    -2.9008    -2.2134 H       
  42 H42            5.3437    -2.5987     2.0483 H       
  43 H43            6.8121    -2.9366     1.1006 H       
  44 H44            6.0559    -1.3269     1.0268 H       
@<TRIPOS>BOND
   1    1    2 2
   2    1   11 1
   3    1    6 1
   4    2    3 1
   5    2   13 1
   6    3    4 2
   7    3   27 1
   8    4    5 1
   9    4   28 1
  10    5    6 1
  11    5    7 1
  12    6    9 2
  13    7    8 2
  14    7   10 1
  15    8    9 1
  16    8   29 1
  17   10   23 1
  18   10   30 1
  19   10   31 1
  20   11   12 3
  21   13   14 ar
  22   13   18 ar
  23   14   15 ar
  24   14   32 1
  25   15   16 ar
  26   15   33 1
  27   16   17 ar
  28   16   19 1
  29   17   18 ar
  30   17   34 1
  31   18   35 1
  32   19   20 1
  33   19   21 1
  34   19   22 1
  35   20   36 1
  36   20   37 1
  37   20   38 1
  38   21   39 1
  39   21   40 1
  40   21   41 1
  41   22   42 1
  42   22   43 1
  43   22   44 1
  44   23   24 1
  45   23   25 1
  46   23   26 1

#	End of record

