#	Name: ASD01028089
#	Creating user name:	WinNT
#	Creation time:	15. 06. 2019 18:56

#	Modifying user name:	WinNT
#	Modification time:	15. 06. 2019 18:56

#	Program:	/corina/corina34_cracker 3.40 0067  02.08.2006

@<TRIPOS>MOLECULE
ASD01028089
  84   89    0    0    0
SMALL
NO_CHARGES


@<TRIPOS>ATOM
   1 C1            -0.0836     1.3788     0.1744 C.3     
   2 C2            -0.0153    -0.1489     0.1792 C.3     
   3 C3            -0.5892    -0.6869     1.4898 C.3     
   4 C4             1.8370     2.2599     1.3169 C.2     
   5 N5             1.2960     1.9233     0.1039 N.am    
   6 N6             3.8190     2.6358     2.6818 N.3     
   7 N7             3.1336    -1.1394     4.3305 N.pl3   
   8 C8             4.1098    -0.3437     4.9034 C.ar    
   9 C9             4.2629     0.9388     4.3888 C.ar    
  10 C10            3.3582     1.3739     3.2653 C.3     
  11 C11            4.9091    -0.7675     5.9619 C.ar    
  12 C12            5.8690     0.0899     6.4806 C.ar    
  13 C13            6.0279     1.3631     5.9445 C.ar    
  14 C14            5.2238     1.7819     4.9017 C.ar    
  15 O15           -0.7594    -2.1020     1.4107 O.3     
  16 C16           -0.0137    -2.8638     2.2521 C.ar    
  17 C17            1.0186    -2.2743     2.9315 C.ar    
  18 C18            1.8021    -3.0485     3.7956 C.ar    
  19 C19            2.8841    -2.4666     4.5151 C.ar    
  20 N20            3.5863    -3.2508     5.3148 N.ar    
  21 O21            4.9398    -1.9417     6.6501 O.3     
  22 C22            5.9239    -1.8128     7.6811 C.3     
  23 O23            6.5231    -0.5259     7.5024 O.3     
  24 C24           -0.2950    -4.2250     2.4220 C.ar    
  25 C25            0.4700    -5.0030     3.2659 C.ar    
  26 C26            1.5356    -4.4262     3.9676 C.ar    
  27 N27            2.3206    -5.1285     4.8009 N.ar    
  28 C28            3.3026    -4.5374     5.4417 C.ar    
  29 O29           -1.3331    -4.7856     1.7486 O.3     
  30 C30           -1.5697    -6.1783     1.9638 C.3     
  31 O31            1.2125     2.0833     2.3415 O.2     
  32 C32            3.2214     2.8527     1.3556 C.3     
  33 C33            3.5369     3.7654     3.5776 C.3     
  34 C34           -2.7696    -6.6271     1.1273 C.3     
  35 C35           -3.1004    -8.0853     1.4512 C.3     
  36 N36           -4.2525    -8.5162     0.6481 N.3     
  37 C37           -4.4532    -9.9671     0.7518 C.3     
  38 C38           -5.5650   -10.3995    -0.2067 C.3     
  39 C39            4.0910     2.1840     0.2891 C.3     
  40 O40           -2.4538    -6.5073    -0.2612 O.3     
  41 C41           -6.8571    -9.6598     0.1512 C.3     
  42 C42           -6.6077    -8.1506     0.0826 C.3     
  43 C43           -5.4656    -7.7835     1.0328 C.3     
  44 O44           -7.8842   -10.0168    -0.7759 O.3     
  45 H45           -0.6535     1.7158    -0.6915 H       
  46 H46           -0.5664     1.7253     1.0881 H       
  47 H47           -0.5936    -0.5404    -0.6576 H       
  48 H48            1.0231    -0.4657     0.0811 H       
  49 H49            0.0928    -0.4504     2.3066 H       
  50 H50           -1.5542    -0.2173     1.6810 H       
  51 H51            1.7751     2.0315    -0.7324 H       
  52 H52            2.5418    -0.6879     3.7085 H       
  53 H53            2.3469     1.5054     3.6502 H       
  54 H54            3.3497     0.6043     2.4935 H       
  55 H55            6.7812     2.0259     6.3440 H       
  56 H56            5.3491     2.7716     4.4880 H       
  57 H57            1.2266    -1.2225     2.8017 H       
  58 H58            5.4503    -1.8730     8.6610 H       
  59 H59            6.6771    -2.5942     7.5802 H       
  60 H60            0.2474    -6.0530     3.3856 H       
  61 H61            3.9115    -5.1325     6.1062 H       
  62 H62           -0.6878    -6.7466     1.6681 H       
  63 H63           -1.7771    -6.3528     3.0195 H       
  64 H64            3.1632     3.9226     1.1556 H       
  65 H65            2.4654     3.9655     3.5835 H       
  66 H66            3.8662     3.5196     4.5872 H       
  67 H67            4.0697     4.6492     3.2267 H       
  68 H68           -3.6297    -5.9991     1.3598 H       
  69 H69           -2.2403    -8.7132     1.2188 H       
  70 H70           -3.3412    -8.1766     2.5104 H       
  71 H71           -3.5282   -10.4813     0.4906 H       
  72 H72           -4.7346   -10.2228     1.7734 H       
  73 H73           -5.2782   -10.1566    -1.2299 H       
  74 H74           -5.7244   -11.4741    -0.1182 H       
  75 H75            3.6515     2.3499    -0.6945 H       
  76 H76            5.0930     2.6122     0.3163 H       
  77 H77            4.1480     1.1134     0.4856 H       
  78 H78           -1.6965    -7.0403    -0.5397 H       
  79 H79           -7.1652    -9.9326     1.1606 H       
  80 H80           -6.3373    -7.8724    -0.9360 H       
  81 H81           -7.5120    -7.6186     0.3779 H       
  82 H82           -5.7423    -8.0494     2.0530 H       
  83 H83           -5.2760    -6.7116     0.9757 H       
  84 H84           -8.7327    -9.5840    -0.6087 H       
@<TRIPOS>BOND
   1    1    2 1
   2    1    5 1
   3    1   45 1
   4    1   46 1
   5    2    3 1
   6    2   47 1
   7    2   48 1
   8    3   15 1
   9    3   49 1
  10    3   50 1
  11    4    5 am
  12    4   31 2
  13    4   32 1
  14    5   51 1
  15    6   32 1
  16    6   33 1
  17    6   10 1
  18    7    8 1
  19    7   19 1
  20    7   52 1
  21    8    9 ar
  22    8   11 ar
  23    9   10 1
  24    9   14 ar
  25   10   53 1
  26   10   54 1
  27   11   12 ar
  28   11   21 1
  29   12   13 ar
  30   12   23 1
  31   13   14 ar
  32   13   55 1
  33   14   56 1
  34   15   16 1
  35   16   17 ar
  36   16   24 ar
  37   17   18 ar
  38   17   57 1
  39   18   19 ar
  40   18   26 ar
  41   19   20 ar
  42   20   28 ar
  43   21   22 1
  44   22   23 1
  45   22   58 1
  46   22   59 1
  47   24   25 ar
  48   24   29 1
  49   25   26 ar
  50   25   60 1
  51   26   27 ar
  52   27   28 ar
  53   28   61 1
  54   29   30 1
  55   30   34 1
  56   30   62 1
  57   30   63 1
  58   32   39 1
  59   32   64 1
  60   33   65 1
  61   33   66 1
  62   33   67 1
  63   34   35 1
  64   34   40 1
  65   34   68 1
  66   35   36 1
  67   35   69 1
  68   35   70 1
  69   36   37 1
  70   36   43 1
  71   37   38 1
  72   37   71 1
  73   37   72 1
  74   38   41 1
  75   38   73 1
  76   38   74 1
  77   39   75 1
  78   39   76 1
  79   39   77 1
  80   40   78 1
  81   41   42 1
  82   41   44 1
  83   41   79 1
  84   42   43 1
  85   42   80 1
  86   42   81 1
  87   43   82 1
  88   43   83 1
  89   44   84 1

#	End of record

