#	Name: ASD03081125
#	Creating user name:	WinNT
#	Creation time:	15. 06. 2019 20:27

#	Modifying user name:	WinNT
#	Modification time:	15. 06. 2019 20:27

#	Program:	/corina/corina34_cracker 3.40 0067  02.08.2006

@<TRIPOS>MOLECULE
ASD03081125
  25   27    0    0    0
SMALL
NO_CHARGES


@<TRIPOS>ATOM
   1 O1            -0.0144     1.2085     0.0087 O.3     
   2 N2             0.0021    -0.0041     0.0020 N.2     
   3 C3             1.2345    -0.4422    -0.0121 C.2     
   4 N4             2.0455     0.6360    -0.0141 N.2     
   5 C5             1.2412     1.6827    -0.0008 C.2     
   6 C6             3.0148    -2.2114    -0.0377 C.ar    
   7 C7             1.6621    -1.8643    -0.0234 C.ar    
   8 C8             0.7234    -2.9020    -0.0196 C.ar    
   9 C9             1.1975    -4.2028    -0.0302 C.ar    
  10 N10            2.4972    -4.4303    -0.0435 N.ar    
  11 N11            3.3623    -3.4830    -0.0470 N.ar    
  12 C12            1.6457     3.1039     0.0023 C.ar    
  13 C13            0.6760     4.1082     0.0167 C.ar    
  14 C14            1.0589     5.4327     0.0199 C.ar    
  15 C15            2.4039     5.7680     0.0085 C.ar    
  16 C16            3.3708     4.7748    -0.0058 C.ar    
  17 C17            2.9990     3.4471    -0.0034 C.ar    
  18 F18            2.7737     7.0674     0.0108 F       
  19 H19            3.7724    -1.4417    -0.0456 H       
  20 H20           -0.3365    -2.6950    -0.0083 H       
  21 H21            0.5040    -5.0307    -0.0273 H       
  22 H22           -0.3722     3.8481     0.0249 H       
  23 H23            0.3095     6.2104     0.0310 H       
  24 H24            4.4174     5.0414    -0.0147 H       
  25 H25            3.7531     2.6741    -0.0104 H       
@<TRIPOS>BOND
   1    1    2 1
   2    1    5 1
   3    2    3 2
   4    3    4 1
   5    3    7 1
   6    4    5 2
   7    5   12 1
   8    6    7 ar
   9    6   11 ar
  10    6   19 1
  11    7    8 ar
  12    8    9 ar
  13    8   20 1
  14    9   10 ar
  15    9   21 1
  16   10   11 ar
  17   12   13 ar
  18   12   17 ar
  19   13   14 ar
  20   13   22 1
  21   14   15 ar
  22   14   23 1
  23   15   16 ar
  24   15   18 1
  25   16   17 ar
  26   16   24 1
  27   17   25 1

#	End of record

