#	Name: ASD01230298
#	Creating user name:	WinNT
#	Creation time:	15. 06. 2019 19:12

#	Modifying user name:	WinNT
#	Modification time:	15. 06. 2019 19:12

#	Program:	/corina/corina34_cracker 3.40 0067  02.08.2006

@<TRIPOS>MOLECULE
ASD01230298
  43   45    0    0    0
SMALL
NO_CHARGES


@<TRIPOS>ATOM
   1 O1             0.0021    -0.0041     0.0020 O.2     
   2 C2            -0.0144     1.2129     0.0087 C.2     
   3 N3             1.1435     1.9026     0.0014 N.am    
   4 C4            -1.2941     1.9287     0.0187 C.2     
   5 C5            -1.9841     2.3113     1.2369 C.2     
   6 C6            -1.4682     2.0179     2.6367 C.3     
   7 C7            -3.1315     2.9548     0.9923 C.2     
   8 C8            -4.0659     3.4753     2.0677 C.3     
   9 C9            -3.7136     2.7987     3.3953 C.3     
  10 C10           -2.2052     2.9170     3.6318 C.3     
  11 S11           -3.4021     3.1118    -0.7355 S.3     
  12 C12           -1.9518     2.3065    -1.1182 C.2     
  13 N13           -1.5007     2.0650    -2.4070 N.am    
  14 C14           -2.2266     2.4803    -3.4640 C.2     
  15 O15           -3.2743     3.0652    -3.2878 O.2     
  16 C16           -1.7363     2.2178    -4.8646 C.3     
  17 N17           -2.6959     2.7631    -5.8280 N.pl3   
  18 N18           -4.0613     2.4620    -5.8815 N.2     
  19 C19           -4.6032     3.1282    -6.8632 C.2     
  20 C20           -6.0554     3.0902    -7.2642 C.3     
  21 C21           -2.4143     3.6400    -6.8044 C.2     
  22 C22           -3.5896     3.8926    -7.4846 C.2     
  23 C23           -3.7563     4.7931    -8.6381 C.2     
  24 O24           -4.8510     4.9322    -9.1471 O.2     
  25 O25           -2.6950     5.4628    -9.1290 O.3     
  26 F26           -6.7717     2.3116    -6.3488 F       
  27 F27           -6.5707     4.3908    -7.2739 F       
  28 F28           -6.1718     2.5328    -8.5420 F       
  29 H29            1.9900     1.4291    -0.0093 H       
  30 H30            1.1303     2.8725     0.0067 H       
  31 H31           -1.6532     0.9722     2.8825 H       
  32 H32           -0.3985     2.2224     2.6822 H       
  33 H33           -3.9466     4.5544     2.1645 H       
  34 H34           -5.0965     3.2418     1.8007 H       
  35 H35           -4.2497     3.2890     4.2079 H       
  36 H36           -3.9946     1.7464     3.3540 H       
  37 H37           -1.9703     2.6037     4.6490 H       
  38 H38           -1.8942     3.9517     3.4874 H       
  39 H39           -0.6627     1.5971    -2.5479 H       
  40 H40           -0.7674     2.6966    -5.0061 H       
  41 H41           -1.6368     1.1434    -5.0193 H       
  42 H42           -1.4462     4.0675    -7.0201 H       
  43 H43           -2.8537     6.0421    -9.8868 H       
@<TRIPOS>BOND
   1    1    2 2
   2    2    3 am
   3    2    4 1
   4    3   29 1
   5    3   30 1
   6    4    5 1
   7    4   12 2
   8    5    6 1
   9    5    7 2
  10    6   10 1
  11    6   31 1
  12    6   32 1
  13    7    8 1
  14    7   11 1
  15    8    9 1
  16    8   33 1
  17    8   34 1
  18    9   10 1
  19    9   35 1
  20    9   36 1
  21   10   37 1
  22   10   38 1
  23   11   12 1
  24   12   13 1
  25   13   14 am
  26   13   39 1
  27   14   15 2
  28   14   16 1
  29   16   17 1
  30   16   40 1
  31   16   41 1
  32   17   18 1
  33   17   21 1
  34   18   19 2
  35   19   20 1
  36   19   22 1
  37   20   26 1
  38   20   27 1
  39   20   28 1
  40   21   22 2
  41   21   42 1
  42   22   23 1
  43   23   24 2
  44   23   25 1
  45   25   43 1

#	End of record

