#	Name: ASD01148054
#	Creating user name:	WinNT
#	Creation time:	15. 06. 2019 19:01

#	Modifying user name:	WinNT
#	Modification time:	15. 06. 2019 19:01

#	Program:	/corina/corina34_cracker 3.40 0067  02.08.2006

@<TRIPOS>MOLECULE
ASD01148054
  17   16    0    0    0
SMALL
NO_CHARGES


@<TRIPOS>ATOM
   1 N1            -0.0178     1.4648     0.0101 N.3     
   2 C2             0.0021    -0.0041     0.0020 C.3     
   3 C3             0.7421    -0.5109     1.2415 C.3     
   4 O4             0.0101    -0.1492     2.4144 O.3     
   5 C5             0.7074    -0.4901    -1.2379 C.2     
   6 O6             1.4504     0.2491    -1.8392 O.2     
   7 O7             0.5104    -1.7441    -1.6742 O.3     
   8 C8             0.6185    -0.5776     3.6344 C.3     
   9 F9             0.7340    -1.9718     3.6334 F       
  10 F10            1.8897    -0.0045     3.7479 F       
  11 H11            0.9191     1.8392     0.0032 H       
  12 H12           -0.5563     1.8234    -0.7642 H       
  13 H13           -1.0205    -0.3814     0.0098 H       
  14 H14            0.8346    -1.5958     1.1912 H       
  15 H15            1.7350    -0.0630     1.2804 H       
  16 H16            0.9846    -2.0103    -2.4737 H       
  17 H17            0.0022    -0.2646     4.4772 H       
@<TRIPOS>BOND
   1    1    2 1
   2    1   11 1
   3    1   12 1
   4    2    3 1
   5    2    5 1
   6    2   13 1
   7    3    4 1
   8    3   14 1
   9    3   15 1
  10    4    8 1
  11    5    6 2
  12    5    7 1
  13    7   16 1
  14    8    9 1
  15    8   10 1
  16    8   17 1

#	End of record

