#	Name: ASD01917714
#	Creating user name:	WinNT
#	Creation time:	15. 06. 2019 20:09

#	Modifying user name:	WinNT
#	Modification time:	15. 06. 2019 20:09

#	Program:	/corina/corina34_cracker 3.40 0067  02.08.2006

@<TRIPOS>MOLECULE
ASD01917714
  43   46    0    0    0
SMALL
NO_CHARGES


@<TRIPOS>ATOM
   1 C1            -0.0188     1.5379     0.0105 C.3     
   2 C2             0.0021    -0.0041     0.0020 C.3     
   3 C3            -1.1988    -0.3970    -0.8277 C.2     
   4 N4            -1.6435     0.6580    -1.5280 N.am    
   5 C5            -0.8487     1.8625    -1.2618 C.3     
   6 C6            -2.7838     0.6125    -2.4467 C.3     
   7 O7            -1.6896    -1.5056    -0.8563 O.2     
   8 C8             1.2701    -0.5090    -0.6368 C.ar    
   9 N9             2.0846    -1.2651     0.0728 N.ar    
  10 C10            3.2072    -1.7298    -0.4467 C.ar    
  11 C11            3.5244    -1.4065    -1.7725 C.ar    
  12 C12            2.6289    -0.6003    -2.4873 C.ar    
  13 N13            1.5265    -0.1846    -1.8889 N.ar    
  14 C14            4.7324    -1.8812    -2.3776 C.1     
  15 C15            5.7227    -2.2704    -2.8737 C.1     
  16 C16            6.9306    -2.7451    -3.4788 C.ar    
  17 C17            7.8121    -3.5484    -2.7505 C.ar    
  18 C18            8.9736    -4.0018    -3.3399 C.ar    
  19 C19            9.2670    -3.6633    -4.6492 C.ar    
  20 C20            8.3991    -2.8679    -5.3765 C.ar    
  21 C21            7.2308    -2.4121    -4.8023 C.ar    
  22 C22           -1.7966     3.0118    -0.8730 C.3     
  23 C23           -1.5240     3.3321     0.6105 C.3     
  24 C24           -0.8933     2.0271     1.1878 C.3     
  25 H25           -0.2100     2.1192    -2.1069 H       
  26 H26            0.9770     1.9810     0.0034 H       
  27 H27           -0.0937    -0.3911     1.0165 H       
  28 H28           -3.1974    -0.3958    -2.4629 H       
  29 H29           -3.5484     1.3135    -2.1117 H       
  30 H30           -2.4541     0.8862    -3.4489 H       
  31 H31            3.8693    -2.3483     0.1410 H       
  32 H32            2.8362    -0.3229    -3.5103 H       
  33 H33            7.5845    -3.8131    -1.7285 H       
  34 H34            9.6560    -4.6224    -2.7781 H       
  35 H35           10.1780    -4.0213    -5.1055 H       
  36 H36            8.6348    -2.6073    -6.3977 H       
  37 H37            6.5541    -1.7917    -5.3712 H       
  38 H38           -1.5910     3.8884    -1.4874 H       
  39 H39           -2.8330     2.7002    -1.0027 H       
  40 H40           -0.8159     4.1560     0.6990 H       
  41 H41           -2.4542     3.5704     1.1264 H       
  42 H42           -1.6657     1.2919     1.4137 H       
  43 H43           -0.2956     2.2455     2.0727 H       
@<TRIPOS>BOND
   1    1    2 1
   2    1   26 1
   3    1    5 1
   4    1   24 1
   5    2    3 1
   6    2    8 1
   7    2   27 1
   8    3    4 am
   9    3    7 2
  10    4    5 1
  11    4    6 1
  12    5   22 1
  13    5   25 1
  14    6   28 1
  15    6   29 1
  16    6   30 1
  17    8    9 ar
  18    8   13 ar
  19    9   10 ar
  20   10   11 ar
  21   10   31 1
  22   11   12 ar
  23   11   14 1
  24   12   13 ar
  25   12   32 1
  26   14   15 3
  27   15   16 1
  28   16   17 ar
  29   16   21 ar
  30   17   18 ar
  31   17   33 1
  32   18   19 ar
  33   18   34 1
  34   19   20 ar
  35   19   35 1
  36   20   21 ar
  37   20   36 1
  38   21   37 1
  39   22   23 1
  40   22   38 1
  41   22   39 1
  42   23   24 1
  43   23   40 1
  44   23   41 1
  45   24   42 1
  46   24   43 1

#	End of record

