#	Name: ASD07301060
#	Creating user name:	WinNT
#	Creation time:	15. 06. 2019 21:10

#	Modifying user name:	WinNT
#	Modification time:	15. 06. 2019 21:10

#	Program:	/corina/corina34_cracker 3.40 0067  02.08.2006

@<TRIPOS>MOLECULE
ASD07301060
  31   31    0    0    0
SMALL
NO_CHARGES


@<TRIPOS>ATOM
   1 C1             1.2970     0.3935    -0.6682 C.3     
   2 C2             0.0071    -0.0049     0.0015 C.2     
   3 C3             0.0342    -0.8360     1.2061 C.2     
   4 C4            -0.1096    -2.2886     1.0965 C.2     
   5 C5            -0.0816    -3.1443     2.3366 C.3     
   6 O6            -1.0541     0.3634    -0.4578 O.2     
   7 O7            -0.2513    -2.8038     0.0068 O.2     
   8 N8             0.1888    -0.2742     2.3945 N.2     
   9 N9             0.4115     0.9932     2.4846 N.pl3   
  10 C10            0.6802     1.5674     3.7270 C.ar    
  11 C11            0.9203     2.9324     3.8254 C.ar    
  12 C12            1.1862     3.4986     5.0616 C.ar    
  13 C13            1.2123     2.7020     6.1983 C.ar    
  14 C14            0.9733     1.3444     6.0991 C.ar    
  15 C15            0.7025     0.7759     4.8697 C.ar    
  16 O16            1.4220     4.8333     5.1614 O.3     
  17 C17            1.6892     5.3491     6.4670 C.3     
  18 F18            2.8272     4.7262     6.9906 F       
  19 F19            1.9075     6.7287     6.3877 F       
  20 F20            0.5944     5.0973     7.3009 F       
  21 H21            1.6129    -0.3977    -1.3481 H       
  22 H22            1.1453     1.3156    -1.2294 H       
  23 H23            2.0657     0.5509     0.0883 H       
  24 H24            0.0527    -2.5099     3.2128 H       
  25 H25           -1.0216    -3.6893     2.4233 H       
  26 H26            0.7443    -3.8526     2.2708 H       
  27 H27            0.3922     1.5469     1.6884 H       
  28 H28            0.9000     3.5506     2.9401 H       
  29 H29            1.4200     3.1438     7.1616 H       
  30 H30            0.9943     0.7274     6.9852 H       
  31 H31            0.5120    -0.2846     4.7955 H       
@<TRIPOS>BOND
   1    1    2 1
   2    1   21 1
   3    1   22 1
   4    1   23 1
   5    2    3 1
   6    2    6 2
   7    3    4 1
   8    3    8 2
   9    4    5 1
  10    4    7 2
  11    5   24 1
  12    5   25 1
  13    5   26 1
  14    8    9 1
  15    9   10 1
  16    9   27 1
  17   10   11 ar
  18   10   15 ar
  19   11   12 ar
  20   11   28 1
  21   12   13 ar
  22   12   16 1
  23   13   14 ar
  24   13   29 1
  25   14   15 ar
  26   14   30 1
  27   15   31 1
  28   16   17 1
  29   17   18 1
  30   17   19 1
  31   17   20 1

#	End of record

