#	Name: ASD01028519
#	Creating user name:	WinNT
#	Creation time:	15. 06. 2019 18:57

#	Modifying user name:	WinNT
#	Modification time:	15. 06. 2019 18:57

#	Program:	/corina/corina34_cracker 3.40 0067  02.08.2006

@<TRIPOS>MOLECULE
ASD01028519
  47   51    0    0    0
SMALL
NO_CHARGES


@<TRIPOS>ATOM
   1 C1            -0.0171     1.4124     0.0098 C.ar    
   2 C2             0.0021    -0.0041     0.0020 C.ar    
   3 C3             1.2091     2.1057     0.0018 C.ar    
   4 C4             2.3637     1.3769    -0.0132 C.ar    
   5 C5             2.3091    -0.0153    -0.0206 C.ar    
   6 N6             1.1665    -0.6585    -0.0123 N.ar    
   7 C7             1.2456     3.6122     0.0091 C.3     
   8 C8             1.1458     4.1178     1.4497 C.3     
   9 C9             1.1824     5.6243     1.4570 C.2     
  10 N10            0.1147     6.4482     1.3762 N.pl3   
  11 C11            0.6181     7.7268     1.4197 C.2     
  12 N12            1.9326     7.6173     1.5222 N.2     
  13 N13            2.2545     6.3711     1.5486 N.2     
  14 N14           -1.2619     6.2411     1.2674 N.2     
  15 C15           -2.0869     7.2628     1.2058 C.2     
  16 C16           -1.6010     8.5869     1.2477 C.2     
  17 C17           -0.2662     8.8201     1.3541 C.2     
  18 C18           -1.2223    -0.6986     0.0101 C.ar    
  19 C19           -2.3810     0.0315     0.0251 C.ar    
  20 C20           -2.3238     1.4298     0.0320 C.ar    
  21 N21           -1.1801     2.0688     0.0299 N.ar    
  22 O22           -3.5836    -0.6005     0.0329 O.3     
  23 C23           -4.7501     0.2248     0.0485 C.3     
  24 C24           -3.5461     7.0208     1.0904 C.ar    
  25 C25           -4.0376     5.7175     1.0476 C.ar    
  26 C26           -5.3960     5.4982     0.9407 C.ar    
  27 C27           -6.2691     6.5692     0.8760 C.ar    
  28 C28           -5.7867     7.8649     0.9180 C.ar    
  29 C29           -4.4307     8.0959     1.0301 C.ar    
  30 H30            3.3195     1.8798    -0.0196 H       
  31 H31            3.2306    -0.5785    -0.0329 H       
  32 H32            2.1814     3.9551    -0.4322 H       
  33 H33            0.4074     3.9988    -0.5705 H       
  34 H34            0.2100     3.7749     1.8911 H       
  35 H35            1.9841     3.7312     2.0294 H       
  36 H36           -2.2908     9.4163     1.1954 H       
  37 H37            0.1113     9.8315     1.3865 H       
  38 H38           -1.2473    -1.7783     0.0042 H       
  39 H39           -3.2439     1.9953     0.0435 H       
  40 H40           -4.7415     0.8491     0.9420 H       
  41 H41           -4.7583     0.8591    -0.8378 H       
  42 H42           -5.6402    -0.4043     0.0533 H       
  43 H43           -3.3568     4.8806     1.0977 H       
  44 H44           -5.7780     4.4886     0.9071 H       
  45 H45           -7.3313     6.3930     0.7920 H       
  46 H46           -6.4729     8.6974     0.8667 H       
  47 H47           -4.0552     9.1080     1.0628 H       
@<TRIPOS>BOND
   1    1    2 ar
   2    1    3 ar
   3    1   21 ar
   4    2   18 ar
   5    2    6 ar
   6    3    4 ar
   7    3    7 1
   8    4    5 ar
   9    4   30 1
  10    5    6 ar
  11    5   31 1
  12    7    8 1
  13    7   32 1
  14    7   33 1
  15    8    9 1
  16    8   34 1
  17    8   35 1
  18    9   10 1
  19    9   13 2
  20   10   11 1
  21   10   14 1
  22   11   12 2
  23   11   17 1
  24   12   13 1
  25   14   15 2
  26   15   16 1
  27   15   24 1
  28   16   17 2
  29   16   36 1
  30   17   37 1
  31   18   19 ar
  32   18   38 1
  33   19   20 ar
  34   19   22 1
  35   20   21 ar
  36   20   39 1
  37   22   23 1
  38   23   40 1
  39   23   41 1
  40   23   42 1
  41   24   25 ar
  42   24   29 ar
  43   25   26 ar
  44   25   43 1
  45   26   27 ar
  46   26   44 1
  47   27   28 ar
  48   27   45 1
  49   28   29 ar
  50   28   46 1
  51   29   47 1

#	End of record

