#	Name: ASD05790063
#	Creating user name:	WinNT
#	Creation time:	15. 06. 2019 21:03

#	Modifying user name:	WinNT
#	Modification time:	15. 06. 2019 21:03

#	Program:	/corina/corina34_cracker 3.40 0067  02.08.2006

@<TRIPOS>MOLECULE
ASD05790063
  77   82    0    0    0
SMALL
NO_CHARGES


@<TRIPOS>ATOM
   1 C1            -1.1583     1.1742    -1.6637 C.3     
   2 C2            -1.1936    -0.3208    -1.8923 C.2     
   3 C3            -0.1877    -0.9223    -2.8448 C.3     
   4 C4             1.2167    -0.4617    -2.4337 C.3     
   5 C5             1.2412     1.0757    -2.3672 C.3     
   6 C6             0.2745     1.5735    -1.2985 C.3     
   7 C7             2.2170    -0.9575    -3.4820 C.3     
   8 C8             1.8935    -0.3587    -4.8628 C.3     
   9 C9             1.9658     1.1491    -4.7312 C.3     
  10 C10            0.8626     1.5939    -3.7357 C.3     
  11 C11            1.5848     1.9540    -5.9802 C.3     
  12 C12            1.1609     3.3128    -5.4271 C.2     
  13 C13            0.8419     3.1038    -3.9404 C.3     
  14 C14            2.7994     2.0922    -6.8792 C.3     
  15 C15            2.5451     2.8557    -8.1328 C.3     
  16 C16            2.5529     4.3585    -7.9961 C.3     
  17 C17            1.2440     4.8832    -7.4326 C.3     
  18 C18            1.0208     4.4157    -6.0398 C.2     
  19 C19            2.7901     4.9984    -9.3912 C.3     
  20 C20            4.0893     5.7913    -9.2007 C.3     
  21 C21            4.7406     4.9914    -8.0379 C.3     
  22 O22            3.6535     4.7722    -7.1490 O.3     
  23 N23            5.0248     5.7321   -10.3185 N.3     
  24 C24            6.2562     6.4580    -9.9595 C.3     
  25 C25            6.9229     5.8852    -8.7122 C.3     
  26 C26            5.9229     5.7975    -7.5445 C.3     
  27 C27            2.6572     1.5464    -2.0295 C.3     
  28 C28            0.5054     5.5106    -5.1417 C.3     
  29 C29            8.0908     6.7868    -8.3074 C.3     
  30 C30            2.9701     3.9162   -10.4577 C.3     
  31 C31            4.4233     6.2871   -11.5384 C.3     
  32 O32           -2.0045    -1.0151    -1.3277 O.2     
  33 H33           -1.4631     1.6920    -2.5731 H       
  34 H34           -1.8318     1.4368    -0.8479 H       
  35 H35           -0.2442    -2.0098    -2.7973 H       
  36 H36           -0.3998    -0.5870    -3.8600 H       
  37 H37            1.4654    -0.8741    -1.4558 H       
  38 H38            0.3409     2.6592    -1.2278 H       
  39 H39            0.5393     1.1328    -0.3374 H       
  40 H40            3.2235    -0.6599    -3.1878 H       
  41 H41            2.1669    -2.0448    -3.5408 H       
  42 H42            2.6235    -0.7021    -5.5957 H       
  43 H43            0.8909    -0.6562    -5.1699 H       
  44 H44            2.9480     1.4481    -4.3651 H       
  45 H45           -0.0961     1.1714    -4.0365 H       
  46 H46            0.7561     1.4785    -6.5047 H       
  47 H47           -0.1445     3.5037    -3.7055 H       
  48 H48            1.6013     3.5800    -3.3202 H       
  49 H49            3.5888     2.5952    -6.3208 H       
  50 H50            3.1490     1.0947    -7.1455 H       
  51 H51            3.3044     2.5755    -8.8629 H       
  52 H52            1.5740     2.5538    -8.5251 H       
  53 H53            1.2636     5.9730    -7.4432 H       
  54 H54            0.4225     4.5374    -8.0600 H       
  55 H55            1.9667     5.6625    -9.6544 H       
  56 H56            3.8816     6.8200    -8.9058 H       
  57 H57            5.1019     4.0341    -8.4137 H       
  58 H58            6.9564     6.3999   -10.7928 H       
  59 H59            6.0098     7.5044    -9.7795 H       
  60 H60            7.3020     4.8877    -8.9348 H       
  61 H61            5.5978     6.7974    -7.2569 H       
  62 H62            6.3862     5.2967    -6.6944 H       
  63 H63            3.3674     1.0815    -2.7133 H       
  64 H64            2.7133     2.6304    -2.1291 H       
  65 H65            2.8999     1.2626    -1.0054 H       
  66 H66            0.4031     6.4323    -5.7145 H       
  67 H67           -0.4660     5.2233    -4.7392 H       
  68 H68            1.2062     5.6681    -4.3219 H       
  69 H69            7.7194     7.7895    -8.0959 H       
  70 H70            8.5707     6.3818    -7.4164 H       
  71 H71            8.8144     6.8315    -9.1213 H       
  72 H72            2.1844     3.1681   -10.3523 H       
  73 H73            2.9108     4.3683   -11.4477 H       
  74 H74            3.9432     3.4413   -10.3327 H       
  75 H75            4.1490     7.3280   -11.3671 H       
  76 H76            5.1419     6.2305   -12.3560 H       
  77 H77            3.5327     5.7145   -11.7973 H       
@<TRIPOS>BOND
   1    1    2 1
   2    1    6 1
   3    1   33 1
   4    1   34 1
   5    2    3 1
   6    2   32 2
   7    3    4 1
   8    3   35 1
   9    3   36 1
  10    4    5 1
  11    4    7 1
  12    4   37 1
  13    5    6 1
  14    5   27 1
  15    5   10 1
  16    6   38 1
  17    6   39 1
  18    7    8 1
  19    7   40 1
  20    7   41 1
  21    8    9 1
  22    8   42 1
  23    8   43 1
  24    9   10 1
  25    9   11 1
  26    9   44 1
  27   10   13 1
  28   10   45 1
  29   11   12 1
  30   11   14 1
  31   11   46 1
  32   12   13 1
  33   12   18 2
  34   13   47 1
  35   13   48 1
  36   14   15 1
  37   14   49 1
  38   14   50 1
  39   15   16 1
  40   15   51 1
  41   15   52 1
  42   16   17 1
  43   16   22 1
  44   16   19 1
  45   17   18 1
  46   17   53 1
  47   17   54 1
  48   18   28 1
  49   19   30 1
  50   19   20 1
  51   19   55 1
  52   20   21 1
  53   20   23 1
  54   20   56 1
  55   21   22 1
  56   21   26 1
  57   21   57 1
  58   23   24 1
  59   23   31 1
  60   24   25 1
  61   24   58 1
  62   24   59 1
  63   25   26 1
  64   25   29 1
  65   25   60 1
  66   26   61 1
  67   26   62 1
  68   27   63 1
  69   27   64 1
  70   27   65 1
  71   28   66 1
  72   28   67 1
  73   28   68 1
  74   29   69 1
  75   29   70 1
  76   29   71 1
  77   30   72 1
  78   30   73 1
  79   30   74 1
  80   31   75 1
  81   31   76 1
  82   31   77 1

#	End of record

