#	Name: ASD03330087
#	Creating user name:	WinNT
#	Creation time:	15. 06. 2019 20:36

#	Modifying user name:	WinNT
#	Modification time:	15. 06. 2019 20:36

#	Program:	/corina/corina34_cracker 3.40 0067  02.08.2006

@<TRIPOS>MOLECULE
ASD03330087
  72   76    0    0    0
SMALL
NO_CHARGES


@<TRIPOS>ATOM
   1 C1             1.6378     0.4333    -1.0061 C.2     
   2 C2             1.2803    -0.6520    -0.2638 C.2     
   3 C3             2.9833     0.7359    -0.9737 C.2     
   4 C4             3.7360    -0.1130    -0.1949 C.2     
   5 S5             2.6964    -1.3371     0.5201 S.3     
   6 C6             5.1938    -0.0112     0.0091 C.ar    
   7 C7             5.7268    -0.0499     1.3012 C.ar    
   8 C8             6.0485     0.1185    -1.0878 C.ar    
   9 C9             7.4104     0.2127    -0.8899 C.ar    
  10 C10            7.9312     0.1786     0.3917 C.ar    
  11 C11            7.0918     0.0455     1.4836 C.ar    
  12 C12            3.5688     1.8783    -1.7154 C.ar    
  13 C13            3.3580     2.0018    -3.0882 C.ar    
  14 C14            4.3266     2.8347    -1.0408 C.ar    
  15 C15            4.8695     3.8964    -1.7337 C.ar    
  16 C16            4.6621     4.0136    -3.1013 C.ar    
  17 C17            3.9037     3.0660    -3.7751 C.ar    
  18 C18           -0.0842    -1.1716    -0.1376 C.2     
  19 O19           -1.0171    -0.4033     0.0065 O.2     
  20 N20           -0.3060    -2.5003    -0.1812 N.am    
  21 C21           -1.6756    -3.0317    -0.1585 C.3     
  22 C22            0.8169    -3.4446    -0.2585 C.3     
  23 C23            0.5979    -4.3742    -1.4562 C.3     
  24 C24           -0.7754    -5.0391    -1.3364 C.3     
  25 C25           -1.8616    -3.9668    -1.3576 C.3     
  26 C26           -0.9803    -5.9803    -2.4953 C.ar    
  27 Cl27           4.6750    -0.2168     2.6721 Cl      
  28 C28           -0.8484    -5.8110    -0.0441 C.2     
  29 N29            0.1094    -6.7094     0.2592 N.am    
  30 O30           -1.7690    -5.6237     0.7229 O.2     
  31 C31           -1.3565    -7.7068    -4.6217 C.ar    
  32 C32           -2.3748    -7.5012    -3.7098 C.ar    
  33 C33           -2.1868    -6.6378    -2.6467 C.ar    
  34 C34           -0.1518    -7.0452    -4.4733 C.ar    
  35 C35            0.0362    -6.1818    -3.4102 C.ar    
  36 O36            5.1981     5.0613    -3.7810 O.3     
  37 C37            4.9454     5.1204    -5.1863 C.3     
  38 C38            5.6237     6.3592    -5.7748 C.3     
  39 C39            5.3572     6.4215    -7.2567 C.2     
  40 C40            5.9192     7.5543    -8.0764 C.3     
  41 O41            4.6934     5.5636    -7.7874 O.2     
  42 H42            0.9248     1.0085    -1.5782 H       
  43 H43            5.6441     0.1446    -2.0889 H       
  44 H44            8.0722     0.3129    -1.7375 H       
  45 H45            8.9984     0.2520     0.5401 H       
  46 H46            7.5052     0.0196     2.4810 H       
  47 H47            2.7684     1.2648    -3.6130 H       
  48 H48            4.4880     2.7443     0.0232 H       
  49 H49            5.4563     4.6377    -1.2117 H       
  50 H50            3.7443     3.1601    -4.8391 H       
  51 H51           -1.8371    -3.5862     0.7658 H       
  52 H52           -2.3879    -2.2091    -0.2228 H       
  53 H53            1.7488    -2.8943    -0.3887 H       
  54 H54            0.8628    -4.0335     0.6575 H       
  55 H55            0.6426    -3.7956    -2.3789 H       
  56 H56            1.3731    -5.1403    -1.4687 H       
  57 H57           -2.8415    -4.4403    -1.2958 H       
  58 H58           -1.7908    -3.3954    -2.2831 H       
  59 H59            0.8808    -6.8102    -0.3201 H       
  60 H60            0.0272    -7.2552     1.0569 H       
  61 H61           -1.5034    -8.3813    -5.4522 H       
  62 H62           -3.3160    -8.0181    -3.8257 H       
  63 H63           -2.9825    -6.4772    -1.9343 H       
  64 H64            0.6438    -7.2058    -5.1857 H       
  65 H65            0.9771    -5.6645    -3.2946 H       
  66 H66            5.3441     4.2260    -5.6650 H       
  67 H67            3.8709     5.1774    -5.3602 H       
  68 H68            5.2251     7.2536    -5.2960 H       
  69 H69            6.6982     6.3022    -5.6009 H       
  70 H70            6.9052     7.2782    -8.4500 H       
  71 H71            5.2561     7.7583    -8.9171 H       
  72 H72            6.0028     8.4459    -7.4549 H       
@<TRIPOS>BOND
   1    1    2 2
   2    1    3 1
   3    1   42 1
   4    2   18 1
   5    2    5 1
   6    3    4 2
   7    3   12 1
   8    4    5 1
   9    4    6 1
  10    6    7 ar
  11    6    8 ar
  12    7   27 1
  13    7   11 ar
  14    8    9 ar
  15    8   43 1
  16    9   10 ar
  17    9   44 1
  18   10   11 ar
  19   10   45 1
  20   11   46 1
  21   12   13 ar
  22   12   14 ar
  23   13   17 ar
  24   13   47 1
  25   14   15 ar
  26   14   48 1
  27   15   16 ar
  28   15   49 1
  29   16   17 ar
  30   16   36 1
  31   17   50 1
  32   18   19 2
  33   18   20 am
  34   20   21 1
  35   20   22 1
  36   21   25 1
  37   21   51 1
  38   21   52 1
  39   22   23 1
  40   22   53 1
  41   22   54 1
  42   23   24 1
  43   23   55 1
  44   23   56 1
  45   24   25 1
  46   24   26 1
  47   24   28 1
  48   25   57 1
  49   25   58 1
  50   26   33 ar
  51   26   35 ar
  52   28   29 am
  53   28   30 2
  54   29   59 1
  55   29   60 1
  56   31   32 ar
  57   31   34 ar
  58   31   61 1
  59   32   33 ar
  60   32   62 1
  61   33   63 1
  62   34   35 ar
  63   34   64 1
  64   35   65 1
  65   36   37 1
  66   37   38 1
  67   37   66 1
  68   37   67 1
  69   38   39 1
  70   38   68 1
  71   38   69 1
  72   39   40 1
  73   39   41 2
  74   40   70 1
  75   40   71 1
  76   40   72 1

#	End of record

