#	Name: ASD01810499
#	Creating user name:	WinNT
#	Creation time:	15. 06. 2019 19:24

#	Modifying user name:	WinNT
#	Modification time:	15. 06. 2019 19:24

#	Program:	/corina/corina34_cracker 3.40 0067  02.08.2006

@<TRIPOS>MOLECULE
ASD01810499
  29   29    0    0    0
SMALL
NO_CHARGES


@<TRIPOS>ATOM
   1 C1            -0.0168     1.3904     0.0097 C.ar    
   2 C2             0.0021    -0.0041     0.0020 C.ar    
   3 C3             1.2217    -0.6600    -0.0131 C.ar    
   4 C4             2.3820     0.0999    -0.0201 C.ar    
   5 C5             2.2893     1.4814    -0.0118 C.ar    
   6 N6             1.1177     2.0803     0.0026 N.ar    
   7 C7            -1.2698     2.0837     0.0194 C.1     
   8 N8            -2.2637     2.6337     0.0270 N.1     
   9 N9             6.6102    -0.3534    -0.0659 N.3     
  10 C10            5.8904    -0.7844    -1.2711 C.3     
  11 C11            4.4989    -0.1477    -1.2910 C.3     
  12 C12            3.7309    -0.5718    -0.0361 C.3     
  13 C13            4.5253    -0.1541     1.2045 C.3     
  14 C14            5.9160    -0.7907     1.1520 C.3     
  15 H15           -0.9212    -0.5644     0.0082 H       
  16 H16            1.2683    -1.7390    -0.0190 H       
  17 H17            3.1911     2.0756    -0.0172 H       
  18 H18            7.5637    -0.6833    -0.0768 H       
  19 H19            6.4450    -0.4729    -2.1562 H       
  20 H20            5.7930    -1.8701    -1.2672 H       
  21 H21            4.5957     0.9379    -1.3088 H       
  22 H22            3.9592    -0.4801    -2.1777 H       
  23 H23            3.5991    -1.6538    -0.0380 H       
  24 H24            4.6225     0.9314     1.2259 H       
  25 H25            4.0044    -0.4911     2.1007 H       
  26 H26            5.8184    -1.8763     1.1446 H       
  27 H27            6.4892    -0.4837     2.0268 H       
  28 Cl28          12.5637     7.6337     7.1007 Cl      
  29 H29           12.5637     9.0037     7.1007 H       
@<TRIPOS>BOND
   1    1    2 ar
   2    1    6 ar
   3    1    7 1
   4    2    3 ar
   5    2   15 1
   6    3    4 ar
   7    3   16 1
   8    4    5 ar
   9    4   12 1
  10    5    6 ar
  11    5   17 1
  12    7    8 3
  13    9   10 1
  14    9   14 1
  15    9   18 1
  16   10   11 1
  17   10   19 1
  18   10   20 1
  19   11   12 1
  20   11   21 1
  21   11   22 1
  22   12   13 1
  23   12   23 1
  24   13   14 1
  25   13   24 1
  26   13   25 1
  27   14   26 1
  28   14   27 1
  29   28   29 1

#	End of record

