#	Name: ASD05730021
#	Creating user name:	WinNT
#	Creation time:	15. 06. 2019 21:02

#	Modifying user name:	WinNT
#	Modification time:	15. 06. 2019 21:02

#	Program:	/corina/corina34_cracker 3.40 0067  02.08.2006

@<TRIPOS>MOLECULE
ASD05730021
  58   61    0    0    0
SMALL
NO_CHARGES


@<TRIPOS>ATOM
   1 N1            -0.0152     1.3239     0.0075 N.ar    
   2 C2             0.0024    -0.0045     0.0075 C.ar    
   3 N3             1.1291    -0.7015     0.0057 N.ar    
   4 C4             2.3018    -0.0809     0.0034 C.ar    
   5 C5             2.3221     1.3313     0.0029 C.ar    
   6 C6             1.1056     2.0230     0.0053 C.ar    
   7 N7             3.4845    -0.7744     0.0019 N.am    
   8 C8             4.6645    -0.1291     0.0005 C.2     
   9 C9             4.7417     1.2783    -0.0001 C.2     
  10 C10            3.6065     2.0250    -0.0001 C.2     
  11 N11           -1.1998    -0.6849     0.0098 N.pl3   
  12 C12           -2.4032     0.0204     0.1308 C.ar    
  13 C13           -3.5369    -0.4207    -0.5382 C.ar    
  14 C14           -4.7247     0.2750    -0.4186 C.ar    
  15 C15           -4.7855     1.4139     0.3688 C.ar    
  16 C16           -3.6519     1.8572     1.0388 C.ar    
  17 C17           -2.4646     1.1584     0.9247 C.ar    
  18 O18           -5.9554     2.0983     0.4855 O.3     
  19 O19            5.6954    -0.7792     0.0001 O.2     
  20 C20            3.4626    -2.2392     0.0024 C.3     
  21 C21           -7.0808     1.5862    -0.2311 C.3     
  22 F22           -3.7113     2.9677     1.8060 F       
  23 C23           -8.2959     2.4813     0.0205 C.3     
  24 N24            3.4534    -2.7293    -1.3824 N.3     
  25 C25            4.0125    -4.0847    -1.4647 C.3     
  26 C26            3.8539    -4.6176    -2.8905 C.3     
  27 C27            4.5820    -3.6851    -3.8626 C.3     
  28 C28            4.0139    -2.2701    -3.7223 C.3     
  29 C29            4.1678    -1.8053    -2.2724 C.3     
  30 N30           -8.0481     3.8139    -0.5458 N.3     
  31 C31            6.0873     1.9569    -0.0017 C.3     
  32 H32            1.0837     3.1028     0.0047 H       
  33 H33            3.6532     3.1040    -0.0005 H       
  34 H34           -1.2102    -1.6514    -0.0723 H       
  35 H35           -3.4902    -1.3077    -1.1526 H       
  36 H36           -5.6062    -0.0688    -0.9394 H       
  37 H37           -1.5830     1.5024     1.4451 H       
  38 H38            4.3478    -2.6156     0.5151 H       
  39 H39            2.5681    -2.5891     0.5177 H       
  40 H40           -6.8558     1.5704    -1.2975 H       
  41 H41           -7.2984     0.5739     0.1094 H       
  42 H42           -9.1743     2.0429    -0.4530 H       
  43 H43           -8.4669     2.5685     1.0935 H       
  44 H44            5.0701    -4.0578    -1.2025 H       
  45 H45            3.4831    -4.7386    -0.7716 H       
  46 H46            4.2830    -5.6175    -2.9551 H       
  47 H47            2.7957    -4.6577    -3.1484 H       
  48 H48            5.6467    -3.6749    -3.6292 H       
  49 H49            4.4353    -4.0369    -4.8837 H       
  50 H50            4.5573    -1.5928    -4.3812 H       
  51 H51            2.9581    -2.2733    -3.9933 H       
  52 H52            3.7513    -0.8036    -2.1660 H       
  53 H53            5.2247    -1.7891    -2.0064 H       
  54 H54           -7.8231     3.7535    -1.5275 H       
  55 H55           -8.8368     4.4243    -0.3925 H       
  56 H56            6.4106     2.1202    -1.0298 H       
  57 H57            6.0115     2.9154     0.5119 H       
  58 H58            6.8130     1.3261     0.5116 H       
@<TRIPOS>BOND
   1    1    2 ar
   2    1    6 ar
   3    2    3 ar
   4    2   11 1
   5    3    4 ar
   6    4    5 ar
   7    4    7 1
   8    5    6 ar
   9    5   10 1
  10    6   32 1
  11    7    8 am
  12    7   20 1
  13    8    9 1
  14    8   19 2
  15    9   10 2
  16    9   31 1
  17   10   33 1
  18   11   12 1
  19   11   34 1
  20   12   13 ar
  21   12   17 ar
  22   13   14 ar
  23   13   35 1
  24   14   15 ar
  25   14   36 1
  26   15   16 ar
  27   15   18 1
  28   16   17 ar
  29   16   22 1
  30   17   37 1
  31   18   21 1
  32   20   24 1
  33   20   38 1
  34   20   39 1
  35   21   23 1
  36   21   40 1
  37   21   41 1
  38   23   30 1
  39   23   42 1
  40   23   43 1
  41   24   25 1
  42   24   29 1
  43   25   26 1
  44   25   44 1
  45   25   45 1
  46   26   27 1
  47   26   46 1
  48   26   47 1
  49   27   28 1
  50   27   48 1
  51   27   49 1
  52   28   29 1
  53   28   50 1
  54   28   51 1
  55   29   52 1
  56   29   53 1
  57   30   54 1
  58   30   55 1
  59   31   56 1
  60   31   57 1
  61   31   58 1

#	End of record

