#	Name: ASD05720058
#	Creating user name:	WinNT
#	Creation time:	15. 06. 2019 21:01

#	Modifying user name:	WinNT
#	Modification time:	15. 06. 2019 21:01

#	Program:	/corina/corina34_cracker 3.40 0067  02.08.2006

@<TRIPOS>MOLECULE
ASD05720058
  51   55    0    0    0
SMALL
NO_CHARGES


@<TRIPOS>ATOM
   1 O1            -0.1052     1.1932     0.1308 O.3     
   2 C2             0.0755    -0.1222    -0.0314 C.2     
   3 N3             1.3621    -0.4854    -0.1222 N.am    
   4 C4             2.2047     0.7152    -0.0116 C.3     
   5 C5             1.1893     1.8613     0.1617 C.3     
   6 O6            -0.8431    -0.9152    -0.0907 O.2     
   7 C7             3.5737    -3.2489    -0.6469 C.2     
   8 N8             3.1119    -2.0058    -0.4809 N.2     
   9 C9             1.8247    -1.7836    -0.2925 C.2     
  10 C10            0.9191    -2.8636    -0.2636 C.2     
  11 C11            1.3832    -4.1229    -0.4308 C.2     
  12 N12            2.7220    -4.3213    -0.6244 N.pl3   
  13 N13            3.4821    -5.4794    -0.8228 N.2     
  14 C14            4.7429    -5.1511    -0.9622 C.2     
  15 C15            4.8608    -3.7589    -0.8662 C.2     
  16 C16            6.1102    -2.9736    -0.9736 C.ar    
  17 C17            7.2286    -3.3344    -0.2189 C.ar    
  18 C18            8.3909    -2.6044    -0.3190 C.ar    
  19 C19            8.4520    -1.5026    -1.1756 C.ar    
  20 C20            7.3332    -1.1419    -1.9303 C.ar    
  21 C21            6.1728    -1.8753    -1.8340 C.ar    
  22 N22           11.6999    -0.0646    -0.9729 N.2     
  23 N23           10.8230    -0.9420    -0.6359 N.2     
  24 C24            9.7000    -0.7183    -1.2828 C.2     
  25 N25            9.9071     0.3792    -2.0749 N.pl3   
  26 C26           11.1934     0.7633    -1.8465 C.2     
  27 C27           11.9025     1.9296    -2.4852 C.3     
  28 C28            3.0271     0.9140    -1.2863 C.3     
  29 C29            2.0854     1.0580    -2.4836 C.3     
  30 C30            3.8784     2.1782    -1.1521 C.3     
  31 H31            2.8567     0.6465     0.8591 H       
  32 H32            1.2719     2.5725    -0.6602 H       
  33 H33            1.3380     2.3622     1.1182 H       
  34 H34           -0.1351    -2.6872    -0.1090 H       
  35 H35            0.7040    -4.9624    -0.4112 H       
  36 H36            5.5573    -5.8409    -1.1277 H       
  37 H37            7.1812    -4.1860     0.4435 H       
  38 H38            9.2557    -2.8832     0.2648 H       
  39 H39            7.3803    -0.2901    -2.5926 H       
  40 H40            5.3092    -1.5991    -2.4208 H       
  41 H41            9.2695     0.7964    -2.6752 H       
  42 H42           12.3906     1.6000    -3.4024 H       
  43 H43           11.1792     2.7108    -2.7190 H       
  44 H44           12.6506     2.3216    -1.7961 H       
  45 H45            3.6774     0.0524    -1.4372 H       
  46 H46            1.3795     1.8670    -2.2954 H       
  47 H47            2.6664     1.2835    -3.3778 H       
  48 H48            1.5394     0.1262    -2.6305 H       
  49 H49            4.6087     2.0415    -0.3546 H       
  50 H50            4.3975     2.3681    -2.0915 H       
  51 H51            3.2354     3.0257    -0.9146 H       
@<TRIPOS>BOND
   1    1    2 1
   2    1    5 1
   3    2    3 am
   4    2    6 2
   5    3    4 1
   6    3    9 1
   7    4    5 1
   8    4   28 1
   9    4   31 1
  10    5   32 1
  11    5   33 1
  12    7    8 1
  13    7   12 1
  14    7   15 2
  15    8    9 2
  16    9   10 1
  17   10   11 2
  18   10   34 1
  19   11   12 1
  20   11   35 1
  21   12   13 1
  22   13   14 2
  23   14   15 1
  24   14   36 1
  25   15   16 1
  26   16   17 ar
  27   16   21 ar
  28   17   18 ar
  29   17   37 1
  30   18   19 ar
  31   18   38 1
  32   19   20 ar
  33   19   24 1
  34   20   21 ar
  35   20   39 1
  36   21   40 1
  37   22   23 1
  38   22   26 2
  39   23   24 2
  40   24   25 1
  41   25   26 1
  42   25   41 1
  43   26   27 1
  44   27   42 1
  45   27   43 1
  46   27   44 1
  47   28   29 1
  48   28   30 1
  49   28   45 1
  50   29   46 1
  51   29   47 1
  52   29   48 1
  53   30   49 1
  54   30   50 1
  55   30   51 1

#	End of record

