#	Name: ASD00841936
#	Creating user name:	WinNT
#	Creation time:	15. 06. 2019 18:43

#	Modifying user name:	WinNT
#	Modification time:	15. 06. 2019 18:43

#	Program:	/corina/corina34_cracker 3.40 0067  02.08.2006

@<TRIPOS>MOLECULE
ASD00841936
  90   95    0    0    0
SMALL
NO_CHARGES


@<TRIPOS>ATOM
   1 C1             1.0068     1.5579    -0.3813 C.ar    
   2 C2             1.3137     0.2278    -0.6282 C.ar    
   3 C3             1.2442    -0.7003     0.4009 C.ar    
   4 C4             0.8699    -0.2980     1.6681 C.ar    
   5 C5             0.5640     1.0285     1.9115 C.ar    
   6 C6             0.6329     1.9552     0.8881 C.ar    
   7 C7             1.5764    -2.1462     0.1360 C.3     
   8 C8             1.3074    -2.9862     1.3664 C.2     
   9 C9             0.7732    -2.6696    -1.0564 C.3     
  10 C10           -0.6960    -2.4393    -0.8124 C.2     
  11 N11           -1.6064    -2.9101    -1.6876 N.am    
  12 O12           -1.0592    -1.8304     0.1716 O.2     
  13 C13           -3.0328    -2.5979    -1.5246 C.3     
  14 C14           -3.8271    -3.9078    -1.5215 C.3     
  15 C15           -3.4982    -4.7021    -2.7876 C.3     
  16 C16           -2.0062    -5.0420    -2.8054 C.3     
  17 C17           -1.1906    -3.7403    -2.8263 C.3     
  18 C18           -4.3158    -5.9952    -2.8048 C.3     
  19 C19           -5.8091    -5.6568    -2.7887 C.3     
  20 C20           -6.6215    -6.9513    -2.8674 C.3     
  21 N21           -6.2779    -7.6721    -4.0999 N.3     
  22 C22           -4.8588    -8.0492    -4.1164 C.3     
  23 C23           -3.9938    -6.7874    -4.0749 C.3     
  24 H24           -6.8685    -8.4810    -4.2223 H       
  25 O25            0.2362    -3.1387     1.9144 O.2     
  26 N26            2.4783    -3.5306     1.7377 N.am    
  27 C27            3.0589    -2.3131    -0.1062 C.ar    
  28 C28            3.5260    -3.1559     0.8948 C.ar    
  29 C29            3.9130    -1.8110    -1.0621 C.ar    
  30 C30            5.2565    -2.1455    -1.0326 C.ar    
  31 C31            5.7351    -2.9852    -0.0394 C.ar    
  32 C32            4.8782    -3.4894     0.9202 C.ar    
  33 Cl33           6.3375    -1.5154    -2.2360 Cl      
  34 F34            7.0455    -3.3124    -0.0093 F       
  35 C35            2.4052    -6.1803     2.4781 C.ar    
  36 C36            1.1612    -6.5657     1.9993 C.ar    
  37 C37            3.4476    -7.0872     2.5055 C.ar    
  38 C38            3.2542    -8.3792     2.0560 C.ar    
  39 C39            2.0117    -8.7696     1.5762 C.ar    
  40 C40            0.9645    -7.8619     1.5481 C.ar    
  41 O41            1.8220   -10.0407     1.1346 O.3     
  42 O42            0.1364    -5.6736     1.9730 O.3     
  43 C43           -1.1163    -6.1393     1.4672 C.3     
  44 C44            2.9452   -10.9223     1.1932 C.3     
  45 O45            1.6813    -0.1656    -1.8760 O.3     
  46 C46            2.1645     0.2242    -4.2116 C.3     
  47 C47            1.6224     0.8187    -2.9102 C.3     
  48 S48            2.6579    -4.5312     3.0449 S.o2    
  49 O49            4.0225    -4.4447     3.4320 O.2     
  50 O50            1.5806    -4.2396     3.9244 O.2     
  51 H51            1.0645     2.2830    -1.1796 H       
  52 H52            0.8156    -1.0201     2.4694 H       
  53 H53            0.2709     1.3409     2.9029 H       
  54 H54            0.3936     2.9906     1.0808 H       
  55 H55            1.0785    -2.1418    -1.9599 H       
  56 H56            0.9583    -3.7368    -1.1788 H       
  57 H57           -3.1868    -2.0749    -0.5808 H       
  58 H58           -3.3662    -1.9703    -2.3511 H       
  59 H59           -3.5574    -4.4947    -0.6435 H       
  60 H60           -4.8941    -3.6862    -1.4979 H       
  61 H61           -3.7451    -4.1049    -3.6653 H       
  62 H62           -1.7536    -5.6183    -1.9153 H       
  63 H63           -1.7771    -5.6278    -3.6957 H       
  64 H64           -1.3750    -3.2085    -3.7597 H       
  65 H65           -0.1292    -3.9727    -2.7392 H       
  66 H66           -4.0686    -6.5942    -1.9283 H       
  67 H67           -6.0528    -5.1297    -1.8662 H       
  68 H68           -6.0481    -5.0245    -3.6438 H       
  69 H69           -6.3922    -7.5770    -2.0049 H       
  70 H70           -7.6851    -6.7130    -2.8706 H       
  71 H71           -4.6378    -8.6698    -3.2480 H       
  72 H72           -4.6422    -8.6083    -5.0267 H       
  73 H73           -4.2043    -6.1730    -4.9502 H       
  74 H74           -2.9406    -7.0682    -4.0714 H       
  75 H75            3.5356    -1.1573    -1.8344 H       
  76 H76            5.2577    -4.1431     1.6917 H       
  77 H77            4.4151    -6.7853     2.8785 H       
  78 H78            4.0706    -9.0859     2.0778 H       
  79 H79           -0.0031    -8.1639     1.1754 H       
  80 H80           -0.9911    -6.4719     0.4368 H       
  81 H81           -1.4679    -6.9713     2.0774 H       
  82 H82           -1.8456    -5.3299     1.5016 H       
  83 H83            3.7555   -10.5192     0.5858 H       
  84 H84            3.2785   -11.0179     2.2265 H       
  85 H85            2.6581   -11.9022     0.8118 H       
  86 H86            3.1676    -0.1671    -4.0421 H       
  87 H87            1.5107    -0.5829    -4.5423 H       
  88 H88            2.2012     0.9989    -4.9774 H       
  89 H89            0.5883     1.1308    -3.0564 H       
  90 H90            2.2254     1.6811    -2.6259 H       
@<TRIPOS>BOND
   1    1    2 ar
   2    1    6 ar
   3    1   51 1
   4    2    3 ar
   5    2   45 1
   6    3    4 ar
   7    3    7 1
   8    4    5 ar
   9    4   52 1
  10    5    6 ar
  11    5   53 1
  12    6   54 1
  13    7    8 1
  14    7    9 1
  15    7   27 1
  16    8   25 2
  17    8   26 am
  18    9   10 1
  19    9   55 1
  20    9   56 1
  21   10   11 am
  22   10   12 2
  23   11   13 1
  24   11   17 1
  25   13   14 1
  26   13   57 1
  27   13   58 1
  28   14   15 1
  29   14   59 1
  30   14   60 1
  31   15   16 1
  32   15   18 1
  33   15   61 1
  34   16   17 1
  35   16   62 1
  36   16   63 1
  37   17   64 1
  38   17   65 1
  39   18   19 1
  40   18   23 1
  41   18   66 1
  42   19   20 1
  43   19   67 1
  44   19   68 1
  45   20   21 1
  46   20   69 1
  47   20   70 1
  48   21   22 1
  49   21   24 1
  50   22   23 1
  51   22   71 1
  52   22   72 1
  53   23   73 1
  54   23   74 1
  55   26   48 am
  56   26   28 1
  57   27   28 ar
  58   27   29 ar
  59   28   32 ar
  60   29   30 ar
  61   29   75 1
  62   30   31 ar
  63   30   33 1
  64   31   32 ar
  65   31   34 1
  66   32   76 1
  67   35   36 ar
  68   35   37 ar
  69   35   48 1
  70   36   42 1
  71   36   40 ar
  72   37   38 ar
  73   37   77 1
  74   38   39 ar
  75   38   78 1
  76   39   40 ar
  77   39   41 1
  78   40   79 1
  79   41   44 1
  80   42   43 1
  81   43   80 1
  82   43   81 1
  83   43   82 1
  84   44   83 1
  85   44   84 1
  86   44   85 1
  87   45   47 1
  88   46   47 1
  89   46   86 1
  90   46   87 1
  91   46   88 1
  92   47   89 1
  93   47   90 1
  94   48   49 2
  95   48   50 2

#	End of record

