#	Name: ASD05380140
#	Creating user name:	WinNT
#	Creation time:	15. 06. 2019 20:59

#	Modifying user name:	WinNT
#	Modification time:	15. 06. 2019 20:59

#	Program:	/corina/corina34_cracker 3.40 0067  02.08.2006

@<TRIPOS>MOLECULE
ASD05380140
  49   53    0    0    0
SMALL
NO_CHARGES


@<TRIPOS>ATOM
   1 C1            -0.1399     1.4431    -0.4444 C.ar    
   2 C2             0.0692     0.1190     0.0025 C.ar    
   3 C3             0.9334     2.1967    -0.9229 C.ar    
   4 C4             2.1954     1.6369    -0.9546 C.ar    
   5 C5             2.4010     0.3364    -0.5163 C.ar    
   6 C6             1.3550    -0.4225    -0.0399 C.ar    
   7 N7            -0.9884    -0.5948     0.4634 N.2     
   8 C8            -2.1842    -0.0906     0.5030 C.2     
   9 N9            -2.4761     1.1737     0.0936 N.am    
  10 C10           -1.5031     1.9859    -0.3809 C.2     
  11 C11           -3.7944     1.6408     0.1693 C.ar    
  12 C12           -4.6634     1.4473    -0.8964 C.ar    
  13 C13           -6.3985     2.5636     0.3189 C.ar    
  14 C14           -3.3056    -0.9493     1.0286 C.3     
  15 N15           -3.0873    -2.3399     0.6228 N.pl3   
  16 C16           -4.1613    -3.2058     0.5141 C.ar    
  17 N17           -5.3973    -2.7922     0.7743 N.ar    
  18 O18           -1.7499     3.1194    -0.7502 O.2     
  19 C19           -3.9712    -4.5412     0.1207 C.ar    
  20 C20           -5.1002    -5.3728     0.0284 C.ar    
  21 N21           -6.2971    -4.8710     0.3140 N.ar    
  22 C22           -6.4281    -3.6113     0.6733 C.ar    
  23 N23           -2.8948    -5.2903    -0.2191 N.2     
  24 C24           -3.2817    -6.4990    -0.5071 C.2     
  25 N25           -4.6341    -6.6004    -0.3694 N.pl3   
  26 C26           -5.9627     1.9091    -0.8186 C.ar    
  27 C27           -5.5372     2.7528     1.3841 C.ar    
  28 C28           -4.2367     2.2933     1.3125 C.ar    
  29 F29            0.7390     3.4629    -1.3518 F       
  30 C30           -3.3412    -0.8632     2.5557 C.3     
  31 C31           -4.5539    -1.6336     3.0819 C.3     
  32 H32            3.0290     2.2158    -1.3239 H       
  33 H33            3.3945    -0.0859    -0.5484 H       
  34 H34            1.5288    -1.4333     0.2985 H       
  35 H35           -4.3235     0.9365    -1.7852 H       
  36 H36           -7.4150     2.9238     0.3773 H       
  37 H37           -4.2539    -0.5969     0.6226 H       
  38 H38           -2.1899    -2.6537     0.4302 H       
  39 H39           -7.4155    -3.2338     0.8944 H       
  40 H40           -2.6277    -7.3032    -0.8104 H       
  41 H41           -5.1687    -7.3949    -0.5237 H       
  42 H42           -6.6390     1.7592    -1.6473 H       
  43 H43           -5.8806     3.2643     2.2711 H       
  44 H44           -3.5646     2.4411     2.1449 H       
  45 H45           -2.4292    -1.2974     2.9654 H       
  46 H46           -3.4145     0.1811     2.8592 H       
  47 H47           -4.5792    -1.5723     4.1698 H       
  48 H48           -5.4658    -1.1994     2.6722 H       
  49 H49           -4.4805    -2.6779     2.7784 H       
@<TRIPOS>BOND
   1    1    2 ar
   2    1    3 ar
   3    1   10 1
   4    2    7 1
   5    2    6 ar
   6    3    4 ar
   7    3   29 1
   8    4    5 ar
   9    4   32 1
  10    5    6 ar
  11    5   33 1
  12    6   34 1
  13    7    8 2
  14    8    9 1
  15    8   14 1
  16    9   10 am
  17    9   11 1
  18   10   18 2
  19   11   12 ar
  20   11   28 ar
  21   12   26 ar
  22   12   35 1
  23   13   26 ar
  24   13   27 ar
  25   13   36 1
  26   14   15 1
  27   14   30 1
  28   14   37 1
  29   15   16 1
  30   15   38 1
  31   16   17 ar
  32   16   19 ar
  33   17   22 ar
  34   19   20 ar
  35   19   23 1
  36   20   21 ar
  37   20   25 1
  38   21   22 ar
  39   22   39 1
  40   23   24 2
  41   24   25 1
  42   24   40 1
  43   25   41 1
  44   26   42 1
  45   27   28 ar
  46   27   43 1
  47   28   44 1
  48   30   31 1
  49   30   45 1
  50   30   46 1
  51   31   47 1
  52   31   48 1
  53   31   49 1

#	End of record

