#	Name: ASD00310370
#	Creating user name:	WinNT
#	Creation time:	15. 06. 2019 18:34

#	Modifying user name:	WinNT
#	Modification time:	15. 06. 2019 18:34

#	Program:	/corina/corina34_cracker 3.40 0067  02.08.2006

@<TRIPOS>MOLECULE
ASD00310370
  41   44    0    0    0
SMALL
NO_CHARGES


@<TRIPOS>ATOM
   1 N1            -0.0165     1.3644     0.0095 N.pl3   
   2 C2             0.0021    -0.0041     0.0020 C.2     
   3 C3             1.2696    -0.4447    -0.0124 C.2     
   4 C4             2.1343     0.7388    -0.0143 C.ar    
   5 C5             3.5161     0.9261    -0.0272 C.ar    
   6 C6             4.0326     2.2143    -0.0259 C.ar    
   7 C7             3.1694     3.3170    -0.0117 C.ar    
   8 C8             1.8058     3.1367     0.0014 C.ar    
   9 C9             1.2718     1.8507    -0.0001 C.ar    
  10 S10            1.7947    -2.1266    -0.0260 S.o2    
  11 O11            1.7553    -2.5483    -1.3824 O.2     
  12 O12            2.9683    -2.1870     0.7730 O.2     
  13 O13            0.7339    -2.9356     0.7066 O.3     
  14 C14            8.2449     2.8149    -0.0629 C.ar    
  15 C15            7.4362     3.4894    -0.9775 C.ar    
  16 C16            6.0726     3.2948    -0.9655 C.ar    
  17 C17            5.5007     2.4234    -0.0390 C.ar    
  18 C18            6.3092     1.7489     0.8755 C.ar    
  19 C19            7.6728     1.9434     0.8637 C.ar    
  20 C20            9.7131     3.0196    -0.0797 C.ar    
  21 C21           10.3939     3.3223     1.1042 C.ar    
  22 C22           11.7660     3.5116     1.0792 C.ar    
  23 C23           12.4587     3.4014    -0.1119 C.ar    
  24 C24           11.7882     3.1026    -1.2846 C.ar    
  25 C25           10.4219     2.9058    -1.2735 C.ar    
  26 O26            9.7120     3.4308     2.2741 O.3     
  27 Cl27           3.8255     4.9242    -0.0102 Cl      
  28 H28           -0.8181     1.9105     0.0165 H       
  29 H29           -0.8738    -0.6359     0.0073 H       
  30 H30            4.1800     0.0743    -0.0377 H       
  31 H31            1.1485     3.9935     0.0127 H       
  32 H32            0.9262    -3.8820     0.7571 H       
  33 H33            7.8791     4.1645    -1.6948 H       
  34 H34            5.4464     3.8170    -1.6737 H       
  35 H35            5.8662     1.0744     1.5932 H       
  36 H36            8.2990     1.4208     1.5717 H       
  37 H37           12.2949     3.7458     1.9912 H       
  38 H38           13.5284     3.5496    -0.1273 H       
  39 H39           12.3363     3.0185    -2.2114 H       
  40 H40            9.9025     2.6679    -2.1900 H       
  41 H41            9.6359     2.6002     2.7634 H       
@<TRIPOS>BOND
   1    1    2 1
   2    1    9 1
   3    1   28 1
   4    2    3 2
   5    2   29 1
   6    3    4 1
   7    3   10 1
   8    4    5 ar
   9    4    9 ar
  10    5    6 ar
  11    5   30 1
  12    6    7 ar
  13    6   17 1
  14    7    8 ar
  15    7   27 1
  16    8    9 ar
  17    8   31 1
  18   10   11 2
  19   10   12 2
  20   10   13 1
  21   13   32 1
  22   14   15 ar
  23   14   19 ar
  24   14   20 1
  25   15   16 ar
  26   15   33 1
  27   16   17 ar
  28   16   34 1
  29   17   18 ar
  30   18   19 ar
  31   18   35 1
  32   19   36 1
  33   20   21 ar
  34   20   25 ar
  35   21   22 ar
  36   21   26 1
  37   22   23 ar
  38   22   37 1
  39   23   24 ar
  40   23   38 1
  41   24   25 ar
  42   24   39 1
  43   25   40 1
  44   26   41 1

#	End of record

