#	Name: ASD03430446
#	Creating user name:	WinNT
#	Creation time:	15. 06. 2019 20:41

#	Modifying user name:	WinNT
#	Modification time:	15. 06. 2019 20:41

#	Program:	/corina/corina34_cracker 3.40 0067  02.08.2006

@<TRIPOS>MOLECULE
ASD03430446
  59   64    0    0    0
SMALL
NO_CHARGES


@<TRIPOS>ATOM
   1 N1            -0.1565     1.3156     0.2649 N.am    
   2 C2            -0.2272     0.0012     0.5346 C.2     
   3 C3             0.9989    -0.3529     1.3491 C.3     
   4 C4             1.7424     0.9562     1.4816 C.ar    
   5 C5             2.9231     1.3054     2.1023 C.ar    
   6 C6             3.3659     2.6182     2.0548 C.ar    
   7 C7             2.6207     3.5708     1.3847 C.ar    
   8 C8             1.4391     3.2229     0.7637 C.ar    
   9 C9             0.9866     1.9052     0.8061 C.ar    
  10 O10           -1.1079    -0.7585     0.1907 O.2     
  11 C11            0.6355     4.2703     0.0370 C.3     
  12 O12           -0.5868    -2.0961     6.4701 O.3     
  13 C13           -1.6640    -1.1975     6.7848 C.3     
  14 C14           -1.3399     0.0429     5.9189 C.3     
  15 C15           -0.5233    -0.5650     4.7946 C.ar    
  16 C16           -0.1319    -1.8306     5.2147 C.ar    
  17 C17            0.6278    -2.6197     4.3566 C.ar    
  18 C18            0.9908    -2.1416     3.1089 C.ar    
  19 C19            0.5993    -0.8729     2.7059 C.ar    
  20 C20           -0.1588    -0.0875     3.5550 C.ar    
  21 O21            1.7335    -2.9174     2.2763 O.3     
  22 F22            3.6467     0.3702     2.7558 F       
  23 C23           -1.1609     2.0448    -0.5133 C.3     
  24 C24           -0.5549     2.4982    -1.8164 C.ar    
  25 C25           -0.9717     3.6809    -2.3981 C.ar    
  26 C26           -0.4158     4.0968    -3.5934 C.ar    
  27 C27            0.5573     3.3303    -4.2069 C.ar    
  28 C28            0.9748     2.1480    -3.6248 C.ar    
  29 C29            0.4220     1.7343    -2.4272 C.ar    
  30 C30           -2.3337     1.1405    -0.7925 C.ar    
  31 C31           -3.5771     1.4391    -0.2674 C.ar    
  32 C32           -4.6529     0.6096    -0.5234 C.ar    
  33 C33           -4.4853    -0.5182    -1.3049 C.ar    
  34 C34           -3.2421    -0.8164    -1.8307 C.ar    
  35 C35           -2.1673     0.0155    -1.5783 C.ar    
  36 H36            1.6086    -1.0868     0.8221 H       
  37 H37            4.2900     2.8960     2.5399 H       
  38 H38            2.9657     4.5935     1.3476 H       
  39 H39            0.8781     4.2422    -1.0253 H       
  40 H40           -0.4276     4.0713     0.1722 H       
  41 H41            0.8746     5.2551     0.4384 H       
  42 H42           -2.6230    -1.6289     6.4978 H       
  43 H43           -1.6562    -0.9415     7.8443 H       
  44 H44           -2.2523     0.4992     5.5350 H       
  45 H45           -0.7504     0.7672     6.4810 H       
  46 H46            0.9352    -3.6081     4.6647 H       
  47 H47           -0.4659     0.9006     3.2457 H       
  48 H48            1.2088    -3.4801     1.6905 H       
  49 H49           -1.4984     2.9134     0.0522 H       
  50 H50           -1.7320     4.2798    -1.9188 H       
  51 H51           -0.7420     5.0205    -4.0482 H       
  52 H52            0.9911     3.6548    -5.1412 H       
  53 H53            1.7348     1.5489    -4.1042 H       
  54 H54            0.7508     0.8125    -1.9705 H       
  55 H55           -3.7080     2.3203     0.3431 H       
  56 H56           -5.6241     0.8426    -0.1126 H       
  57 H57           -5.3256    -1.1667    -1.5044 H       
  58 H58           -3.1112    -1.6978    -2.4410 H       
  59 H59           -1.1968    -0.2155    -1.9921 H       
@<TRIPOS>BOND
   1    1    2 am
   2    1    9 1
   3    1   23 1
   4    2    3 1
   5    2   10 2
   6    3    4 1
   7    3   19 1
   8    3   36 1
   9    4    5 ar
  10    4    9 ar
  11    5    6 ar
  12    5   22 1
  13    6    7 ar
  14    6   37 1
  15    7    8 ar
  16    7   38 1
  17    8    9 ar
  18    8   11 1
  19   11   39 1
  20   11   40 1
  21   11   41 1
  22   12   13 1
  23   12   16 1
  24   13   14 1
  25   13   42 1
  26   13   43 1
  27   14   15 1
  28   14   44 1
  29   14   45 1
  30   15   16 ar
  31   15   20 ar
  32   16   17 ar
  33   17   18 ar
  34   17   46 1
  35   18   19 ar
  36   18   21 1
  37   19   20 ar
  38   20   47 1
  39   21   48 1
  40   23   24 1
  41   23   30 1
  42   23   49 1
  43   24   25 ar
  44   24   29 ar
  45   25   26 ar
  46   25   50 1
  47   26   27 ar
  48   26   51 1
  49   27   28 ar
  50   27   52 1
  51   28   29 ar
  52   28   53 1
  53   29   54 1
  54   30   31 ar
  55   30   35 ar
  56   31   32 ar
  57   31   55 1
  58   32   33 ar
  59   32   56 1
  60   33   34 ar
  61   33   57 1
  62   34   35 ar
  63   34   58 1
  64   35   59 1

#	End of record

