#	Name: ASD01880515
#	Creating user name:	WinNT
#	Creation time:	15. 06. 2019 19:40

#	Modifying user name:	WinNT
#	Modification time:	15. 06. 2019 19:40

#	Program:	/corina/corina34_cracker 3.40 0067  02.08.2006

@<TRIPOS>MOLECULE
ASD01880515
  38   40    0    0    0
SMALL
NO_CHARGES


@<TRIPOS>ATOM
   1 N1            -0.0158     1.3148     0.0093 N.ar    
   2 C2             0.0021    -0.0041     0.0020 C.ar    
   3 N3             1.1336    -0.6825    -0.0120 N.ar    
   4 C4             2.2994    -0.0565    -0.0198 C.ar    
   5 C5             2.3212     1.3290    -0.0130 C.ar    
   6 C6             1.1122     2.0081     0.0022 C.ar    
   7 C7             3.6277     2.0801    -0.0209 C.3     
   8 O8             4.7120     1.1494    -0.0353 O.3     
   9 C9             5.9670     1.6658    -0.0440 C.ar    
  10 C10            7.0684     0.8155    -0.0582 C.ar    
  11 C11            8.3373     1.3390    -0.0674 C.ar    
  12 C12            8.5315     2.7243    -0.0626 C.ar    
  13 C13            7.4218     3.5739    -0.0488 C.ar    
  14 C14            6.1509     3.0433    -0.0445 C.ar    
  15 C15            9.7113     0.7167    -0.0830 C.3     
  16 N16           10.6658     1.8311    -0.0865 N.am    
  17 C17            9.9809     2.9874    -0.0747 C.2     
  18 O18           10.4858     4.0935    -0.0745 O.2     
  19 Cl19          -1.5026    -0.8699     0.0117 Cl      
  20 I20            1.0711     4.1026     0.0132 I       
  21 C21           14.1446     1.5339    -1.5615 C.3     
  22 C22           12.6204     1.6664    -1.5473 C.3     
  23 C23           12.1252     1.7041    -0.1001 C.3     
  24 H24            3.2219    -0.6181    -0.0309 H       
  25 H25            3.6786     2.7111    -0.9082 H       
  26 H26            3.6946     2.7021     0.8716 H       
  27 H27            6.9251    -0.2550    -0.0616 H       
  28 H28            7.5607     4.6449    -0.0446 H       
  29 H29            5.2939     3.7003    -0.0342 H       
  30 H30            9.8548     0.1031     0.8064 H       
  31 H31            9.8384     0.1116    -0.9807 H       
  32 H32           14.5883     2.3867    -1.0478 H       
  33 H33           14.4340     0.6135    -1.0544 H       
  34 H34           14.4974     1.5070    -2.5925 H       
  35 H35           12.3310     2.5869    -2.0544 H       
  36 H36           12.1767     0.8136    -2.0610 H       
  37 H37           12.5689     2.5570     0.4136 H       
  38 H38           12.4146     0.7837     0.4070 H       
@<TRIPOS>BOND
   1    1    2 ar
   2    1    6 ar
   3    2    3 ar
   4    2   19 1
   5    3    4 ar
   6    4    5 ar
   7    4   24 1
   8    5    6 ar
   9    5    7 1
  10    6   20 1
  11    7    8 1
  12    7   25 1
  13    7   26 1
  14    8    9 1
  15    9   10 ar
  16    9   14 ar
  17   10   11 ar
  18   10   27 1
  19   11   12 ar
  20   11   15 1
  21   12   13 ar
  22   12   17 1
  23   13   14 ar
  24   13   28 1
  25   14   29 1
  26   15   16 1
  27   15   30 1
  28   15   31 1
  29   16   17 am
  30   16   23 1
  31   17   18 2
  32   21   22 1
  33   21   32 1
  34   21   33 1
  35   21   34 1
  36   22   23 1
  37   22   35 1
  38   22   36 1
  39   23   37 1
  40   23   38 1

#	End of record

