#	Name: ASD01883146
#	Creating user name:	WinNT
#	Creation time:	15. 06. 2019 19:45

#	Modifying user name:	WinNT
#	Modification time:	15. 06. 2019 19:45

#	Program:	/corina/corina34_cracker 3.40 0067  02.08.2006

@<TRIPOS>MOLECULE
ASD01883146
  42   43    0    0    0
SMALL
NO_CHARGES


@<TRIPOS>ATOM
   1 N1            -0.0162     1.3417     0.0094 N.am    
   2 C2             0.0021    -0.0041     0.0020 C.2     
   3 C3            -1.2160    -0.7274     0.0098 C.2     
   4 C4            -2.4261    -0.0111     0.0252 C.2     
   5 C5            -2.3785     1.3971     0.0323 C.2     
   6 C6            -1.1850     2.0325     0.0299 C.2     
   7 O7             1.0657    -0.6000    -0.0117 O.2     
   8 C8            -1.2151    -2.1594     0.0016 C.1     
   9 N9            -1.2143    -3.2953    -0.0049 N.1     
  10 C10            1.2513     2.0763     0.0013 C.3     
  11 C11            1.6787     2.3398    -1.4440 C.3     
  12 C12            3.0024     3.1071    -1.4525 C.3     
  13 C13            3.4930     3.2618    -2.8935 C.3     
  14 C14            2.7940     4.4906    -0.8334 C.3     
  15 C15           -3.7215    -0.7210     0.0332 C.ar    
  16 C16           -4.1761    -1.3389     1.1997 C.ar    
  17 C17           -5.3863    -1.9995     1.2010 C.ar    
  18 C18           -6.1536    -2.0536     0.0495 C.ar    
  19 C19           -5.7152    -1.4462    -1.1114 C.ar    
  20 C20           -4.5038    -0.7730    -1.1285 C.ar    
  21 O21           -4.0721    -0.1756    -2.2682 O.3     
  22 C22           -4.9175    -0.2798    -3.4156 C.3     
  23 H23           -3.2949     1.9686     0.0437 H       
  24 H24           -1.1609     3.1122     0.0358 H       
  25 H25            1.1243     3.0257     0.5214 H       
  26 H26            2.0168     1.4858     0.5046 H       
  27 H27            1.8057     1.3904    -1.9642 H       
  28 H28            0.9132     2.9304    -1.9474 H       
  29 H29            3.7445     2.5578    -0.8731 H       
  30 H30            2.7509     3.8110    -3.4729 H       
  31 H31            4.4360     3.8084    -2.8995 H       
  32 H32            3.6415     2.2761    -3.3345 H       
  33 H33            2.4445     4.3804     0.1931 H       
  34 H34            3.7370     5.0372    -0.8395 H       
  35 H35            2.0519     5.0399    -1.4129 H       
  36 H36           -3.5805    -1.2997     2.0998 H       
  37 H37           -5.7371    -2.4772     2.1038 H       
  38 H38           -7.1001    -2.5737     0.0590 H       
  39 H39           -6.3189    -1.4929    -2.0057 H       
  40 H40           -5.0566    -1.3305    -3.6703 H       
  41 H41           -5.8849     0.1721    -3.1964 H       
  42 H42           -4.4558     0.2396    -4.2554 H       
@<TRIPOS>BOND
   1    1    2 am
   2    1   10 1
   3    1    6 1
   4    2    3 1
   5    2    7 2
   6    3    4 2
   7    3    8 1
   8    4    5 1
   9    4   15 1
  10    5    6 2
  11    5   23 1
  12    6   24 1
  13    8    9 3
  14   10   11 1
  15   10   25 1
  16   10   26 1
  17   11   12 1
  18   11   27 1
  19   11   28 1
  20   12   13 1
  21   12   14 1
  22   12   29 1
  23   13   30 1
  24   13   31 1
  25   13   32 1
  26   14   33 1
  27   14   34 1
  28   14   35 1
  29   15   16 ar
  30   15   20 ar
  31   16   17 ar
  32   16   36 1
  33   17   18 ar
  34   17   37 1
  35   18   19 ar
  36   18   38 1
  37   19   20 ar
  38   19   39 1
  39   20   21 1
  40   21   22 1
  41   22   40 1
  42   22   41 1
  43   22   42 1

#	End of record

