#	Name: ASD01870138
#	Creating user name:	WinNT
#	Creation time:	15. 06. 2019 19:38

#	Modifying user name:	WinNT
#	Modification time:	15. 06. 2019 19:38

#	Program:	/corina/corina34_cracker 3.40 0067  02.08.2006

@<TRIPOS>MOLECULE
ASD01870138
  43   46    0    0    0
SMALL
NO_CHARGES


@<TRIPOS>ATOM
   1 C1            -0.1633     1.4679     0.5843 C.ar    
   2 C2            -0.1467    -0.0089     0.5831 C.2     
   3 N3            -1.1558    -0.6938     0.0094 N.am    
   4 O4             0.7773    -0.6069     1.0996 O.2     
   5 C5            -1.0870    -2.0879    -0.0914 C.ar    
   6 C6            -2.2420    -2.8504     0.0248 C.ar    
   7 C7             0.1356    -2.7086    -0.3133 C.ar    
   8 C8             0.2036    -4.0848    -0.4133 C.ar    
   9 C9            -0.9507    -4.8479    -0.2914 C.ar    
  10 C10           -2.1741    -4.2267    -0.0742 C.ar    
  11 Cl11          -3.6168    -5.1802     0.0782 Cl      
  12 N12           -0.8817    -6.2465    -0.3930 N.am    
  13 C13           -0.6808    -7.0407     0.6658 C.2     
  14 C14           -1.0170    -6.8959    -1.5558 C.2     
  15 C15           -0.8909    -8.3840    -1.3124 C.3     
  16 C16           -0.6606    -8.4832     0.2093 C.3     
  17 O17           -1.2104    -6.3745    -2.6330 O.2     
  18 O18           -0.5374    -6.6639     1.8092 O.2     
  19 C19           -1.9239    -9.0699    -0.4162 C.3     
  20 C20           -3.2415    -8.3328    -0.1678 C.3     
  21 C21           -2.0274   -10.5941    -0.4989 C.3     
  22 C22            0.8811     2.1801     1.1781 C.ar    
  23 Cl23           1.7315    -4.8604    -0.6918 Cl      
  24 C24           -1.2207     2.1574    -0.0134 C.ar    
  25 C25           -1.2310     3.5357    -0.0098 C.ar    
  26 C26           -0.1941     4.2377     0.5858 C.ar    
  27 C27            0.8607     3.5583     1.1760 C.ar    
  28 F28           -0.2091     5.5886     0.5865 F       
  29 H29           -1.9298    -0.2203    -0.3337 H       
  30 H30           -3.1932    -2.3674     0.1930 H       
  31 H31            1.0330    -2.1152    -0.4081 H       
  32 H32           -0.3149    -8.9689    -2.0295 H       
  33 H33            0.0914    -9.1426     0.6427 H       
  34 H34           -3.1698    -7.3183    -0.5599 H       
  35 H35           -4.0529    -8.8598    -0.6698 H       
  36 H36           -3.4405    -8.2952     0.9032 H       
  37 H37           -1.9794   -11.0166     0.5047 H       
  38 H38           -2.9740   -10.8693    -0.9641 H       
  39 H39           -1.2026   -10.9824    -1.0964 H       
  40 H40            1.7030     1.6519     1.6384 H       
  41 H41           -2.0286     1.6115    -0.4779 H       
  42 H42           -2.0479     4.0698    -0.4720 H       
  43 H43            1.6656     4.1099     1.6389 H       
@<TRIPOS>BOND
   1    1    2 1
   2    1   22 ar
   3    1   24 ar
   4    2    3 am
   5    2    4 2
   6    3    5 1
   7    3   29 1
   8    5    6 ar
   9    5    7 ar
  10    6   10 ar
  11    6   30 1
  12    7    8 ar
  13    7   31 1
  14    8    9 ar
  15    8   23 1
  16    9   10 ar
  17    9   12 1
  18   10   11 1
  19   12   13 am
  20   12   14 am
  21   13   18 2
  22   13   16 1
  23   14   17 2
  24   14   15 1
  25   15   16 1
  26   15   19 1
  27   15   32 1
  28   16   19 1
  29   16   33 1
  30   19   20 1
  31   19   21 1
  32   20   34 1
  33   20   35 1
  34   20   36 1
  35   21   37 1
  36   21   38 1
  37   21   39 1
  38   22   27 ar
  39   22   40 1
  40   24   25 ar
  41   24   41 1
  42   25   26 ar
  43   25   42 1
  44   26   27 ar
  45   26   28 1
  46   27   43 1

#	End of record

