#	Name: ASD01411271
#	Creating user name:	WinNT
#	Creation time:	15. 06. 2019 19:19

#	Modifying user name:	WinNT
#	Modification time:	15. 06. 2019 19:19

#	Program:	/corina/corina34_cracker 3.40 0067  02.08.2006

@<TRIPOS>MOLECULE
ASD01411271
 105  112    0    0    0
SMALL
NO_CHARGES


@<TRIPOS>ATOM
   1 C1             0.0601     2.0752     0.6447 C.ar    
   2 C2            -0.0065     0.6791     0.5932 C.ar    
   3 C3            -1.2524     0.0388     0.6598 C.ar    
   4 C4            -2.3928     0.7850     0.8340 C.ar    
   5 C5            -2.3259     2.1744     0.9230 C.ar    
   6 C6            -1.0985     2.8301     0.7806 C.ar    
   7 N7             1.3946     2.4430     0.5783 N.pl3   
   8 C8             2.1522     1.2939     0.4764 C.2     
   9 C9             1.3262     0.2155     0.4825 C.2     
  10 C10            1.8948     3.8200     0.6068 C.3     
  11 C11            1.2205     4.5898     1.7106 C.2     
  12 N12            1.6491     5.8565     2.0029 N.am    
  13 O13            0.3065     4.0931     2.3342 O.2     
  14 C14            0.9160     6.5277     3.1070 C.3     
  15 C15           -0.3155     7.2283     2.5224 C.3     
  16 C16           -1.3598     7.3618     3.6024 C.2     
  17 C17           -3.5027     2.9919     1.2448 C.2     
  18 O18           -4.4380     2.5025     1.8484 O.2     
  19 N19           -3.5443     4.3066     0.8641 N.am    
  20 C20           -2.6240     7.1406     3.3385 C.2     
  21 C21           -3.0577     6.7703     1.9459 C.3     
  22 S22           -4.2046     5.3615     1.9821 S.o2    
  23 C23            3.6261     1.2446     0.3763 C.ar    
  24 C24            4.2985     2.1126    -0.4861 C.ar    
  25 C25            1.7551    -1.2261     0.3882 C.3     
  26 C26            1.2937    -1.9783     1.6381 C.3     
  27 C27            1.7290    -3.4419     1.5423 C.3     
  28 C28            1.1011    -4.0806     0.3019 C.3     
  29 C29            1.5626    -3.3284    -0.9480 C.3     
  30 C30            1.1272    -1.8648    -0.8523 C.3     
  31 C31            5.6729     2.0639    -0.5762 C.ar    
  32 C32            6.3890     1.1525     0.1890 C.ar    
  33 C33            5.7239     0.2873     1.0480 C.ar    
  34 C34            4.3500     0.3338     1.1481 C.ar    
  35 O35            7.7436     1.1069     0.0966 O.3     
  36 C36            8.4174     0.1458     0.9116 C.3     
  37 C37            9.9030     0.2413     0.6768 C.ar    
  38 C38           10.3951     1.0894    -0.2948 C.ar    
  39 C39           11.7640     1.1778    -0.5109 C.ar    
  40 C40           12.6379     0.4130     0.2499 C.ar    
  41 C41           12.1460    -0.4358     1.2217 C.ar    
  42 C42           10.7775    -0.5197     1.4421 C.ar    
  43 N43           10.2789    -1.3792     2.4268 N.3     
  44 N44           12.2635     2.0389    -1.4975 N.am    
  45 C45           11.4272     2.7974    -2.4352 C.3     
  46 C46           10.7276    -0.9648     3.7641 C.3     
  47 C47           10.1124    -1.8942     4.8137 C.3     
  48 O48           10.4730    -3.2458     4.5163 O.3     
  49 C49           10.0510    -3.6827     3.2216 C.3     
  50 C50           10.6656    -2.7714     2.1559 C.3     
  51 C51           12.3764     3.2351    -3.5727 C.3     
  52 C52           13.7455     3.2460    -2.8542 C.3     
  53 C53           13.5697     2.2805    -1.7027 C.2     
  54 O54           14.4759     1.7902    -1.0627 O.2     
  55 O55           -5.4634     5.7231     1.4308 O.2     
  56 O56           -4.1131     4.6698     3.2200 O.2     
  57 H57           -1.3152    -1.0360     0.5742 H       
  58 H58           -3.3504     0.2902     0.9022 H       
  59 H59           -1.0520     3.9091     0.7760 H       
  60 H60            2.9712     3.8104     0.7778 H       
  61 H61            1.6862     4.3005    -0.3491 H       
  62 H62            2.3773     6.2837     1.5252 H       
  63 H63            0.6009     5.7860     3.8409 H       
  64 H64            1.5644     7.2638     3.5823 H       
  65 H65           -0.0355     8.2178     2.1611 H       
  66 H66           -0.7156     6.6367     1.6989 H       
  67 H67           -1.0638     7.6482     4.6045 H       
  68 H68           -3.2127     4.6065     0.0032 H       
  69 H69           -3.3581     7.2308     4.1292 H       
  70 H70           -3.5537     7.6246     1.4852 H       
  71 H71           -2.1809     6.5039     1.3557 H       
  72 H72            3.7423     2.8211    -1.0820 H       
  73 H73            2.8412    -1.2779     0.3132 H       
  74 H74            1.7410    -1.5232     2.5218 H       
  75 H75            0.2075    -1.9264     1.7130 H       
  76 H76            2.8152    -3.4937     1.4673 H       
  77 H77            1.4003    -3.9777     2.4328 H       
  78 H78            1.4113    -5.1233     0.2336 H       
  79 H79            0.0150    -4.0288     0.3768 H       
  80 H80            2.6487    -3.3803    -1.0230 H       
  81 H81            1.1152    -3.7835    -1.8318 H       
  82 H82            0.0410    -1.8130    -0.7773 H       
  83 H83            1.4559    -1.3290    -1.7427 H       
  84 H84            6.1938     2.7350    -1.2431 H       
  85 H85            6.2842    -0.4200     1.6414 H       
  86 H86            3.8335    -0.3391     1.8166 H       
  87 H87            8.2020     0.3448     1.9614 H       
  88 H88            8.0724    -0.8554     0.6533 H       
  89 H89            9.7154     1.6839    -0.8873 H       
  90 H90           13.7025     0.4816     0.0815 H       
  91 H91           12.8258    -1.0313     1.8130 H       
  92 H92           10.6328     2.1638    -2.8296 H       
  93 H93           11.0031     3.6712    -1.9405 H       
  94 H94           11.8147    -1.0241     3.8179 H       
  95 H95           10.4085     0.0601     3.9537 H       
  96 H96           10.4873    -1.6264     5.8015 H       
  97 H97            9.0270    -1.7949     4.7963 H       
  98 H98           10.3815    -4.7085     3.0579 H       
  99 H99            8.9639    -3.6354     3.1579 H       
 100 H100          10.3013    -3.0654     1.1715 H       
 101 H101          11.7517    -2.8596     2.1840 H       
 102 H102          12.3691     2.5109    -4.3873 H       
 103 H103          12.1181     4.2302    -3.9350 H       
 104 H104          14.5319     2.9030    -3.5265 H       
 105 H105          13.9716     4.2441    -2.4789 H       
@<TRIPOS>BOND
   1    1    2 ar
   2    1    7 1
   3    1    6 ar
   4    2    3 ar
   5    2    9 1
   6    3    4 ar
   7    3   57 1
   8    4    5 ar
   9    4   58 1
  10    5    6 ar
  11    5   17 1
  12    6   59 1
  13    7    8 1
  14    7   10 1
  15    8    9 2
  16    8   23 1
  17    9   25 1
  18   10   11 1
  19   10   60 1
  20   10   61 1
  21   11   12 am
  22   11   13 2
  23   12   14 1
  24   12   62 1
  25   14   15 1
  26   14   63 1
  27   14   64 1
  28   15   16 1
  29   15   65 1
  30   15   66 1
  31   16   20 2
  32   16   67 1
  33   17   18 2
  34   17   19 am
  35   19   22 am
  36   19   68 1
  37   20   21 1
  38   20   69 1
  39   21   22 1
  40   21   70 1
  41   21   71 1
  42   22   55 2
  43   22   56 2
  44   23   24 ar
  45   23   34 ar
  46   24   31 ar
  47   24   72 1
  48   25   26 1
  49   25   30 1
  50   25   73 1
  51   26   27 1
  52   26   74 1
  53   26   75 1
  54   27   28 1
  55   27   76 1
  56   27   77 1
  57   28   29 1
  58   28   78 1
  59   28   79 1
  60   29   30 1
  61   29   80 1
  62   29   81 1
  63   30   82 1
  64   30   83 1
  65   31   32 ar
  66   31   84 1
  67   32   33 ar
  68   32   35 1
  69   33   34 ar
  70   33   85 1
  71   34   86 1
  72   35   36 1
  73   36   37 1
  74   36   87 1
  75   36   88 1
  76   37   38 ar
  77   37   42 ar
  78   38   39 ar
  79   38   89 1
  80   39   40 ar
  81   39   44 1
  82   40   41 ar
  83   40   90 1
  84   41   42 ar
  85   41   91 1
  86   42   43 1
  87   43   46 1
  88   43   50 1
  89   44   45 1
  90   44   53 am
  91   45   51 1
  92   45   92 1
  93   45   93 1
  94   46   47 1
  95   46   94 1
  96   46   95 1
  97   47   48 1
  98   47   96 1
  99   47   97 1
 100   48   49 1
 101   49   50 1
 102   49   98 1
 103   49   99 1
 104   50  100 1
 105   50  101 1
 106   51   52 1
 107   51  102 1
 108   51  103 1
 109   52   53 1
 110   52  104 1
 111   52  105 1
 112   53   54 2

#	End of record

