#	Name: ASD01918313
#	Creating user name:	WinNT
#	Creation time:	15. 06. 2019 20:11

#	Modifying user name:	WinNT
#	Modification time:	15. 06. 2019 20:11

#	Program:	/corina/corina34_cracker 3.40 0067  02.08.2006

@<TRIPOS>MOLECULE
ASD01918313
  45   48    0    0    0
SMALL
NO_CHARGES


@<TRIPOS>ATOM
   1 C1             0.0410     1.6490    -0.1503 C.3     
   2 C2            -0.0452     0.1288     0.0000 C.3     
   3 O3             0.7428    -0.5320    -1.0321 O.3     
   4 C4             1.7099    -1.2572    -0.4591 C.2     
   5 O5             2.5134    -1.9108    -1.0944 O.2     
   6 N6             1.7120    -1.1964     0.8796 N.am    
   7 C7             0.6136    -0.3219     1.3181 C.3     
   8 H8             1.0029     0.5370     1.8648 H       
   9 C9            -0.3683    -1.0896     2.1652 C.ar    
  10 C10           -0.6202    -2.4248     1.9061 C.ar    
  11 N11           -1.4765    -3.1118     2.6381 N.ar    
  12 C12           -2.1279    -2.5650     3.6431 C.ar    
  13 C13           -1.9303    -1.2208     3.9700 C.ar    
  14 C14           -1.0226    -0.4675     3.2137 C.ar    
  15 C15           -2.6388    -0.6251     5.0626 C.1     
  16 C16           -3.2196    -0.1367     5.9584 C.1     
  17 C17           -3.9281     0.4590     7.0510 C.ar    
  18 C18           -4.8228    -0.3033     7.8066 C.ar    
  19 C19           -5.5012     0.2771     8.8578 C.ar    
  20 C20           -5.2978     1.6110     9.1648 C.ar    
  21 C21           -4.4137     2.3723     8.4207 C.ar    
  22 C22           -3.7238     1.8040     7.3702 C.ar    
  23 C23           -1.4810    -0.3256    -0.0553 C.ar    
  24 C24           -2.4492     0.3565     0.6577 C.ar    
  25 C25           -3.7663    -0.0593     0.6077 C.ar    
  26 C26           -4.1159    -1.1591    -0.1572 C.ar    
  27 F27           -5.4031    -1.5662    -0.2072 F       
  28 C28           -3.1453    -1.8412    -0.8713 C.ar    
  29 C29           -1.8297    -1.4207    -0.8236 C.ar    
  30 H30            1.0872     1.9549    -0.1549 H       
  31 H31           -0.4293     1.9487    -1.0868 H       
  32 H32           -0.4734     2.1263     0.6837 H       
  33 H33            2.3360    -1.6546     1.4641 H       
  34 H34           -0.1077    -2.9131     1.0905 H       
  35 H35           -2.8209    -3.1601     4.2193 H       
  36 H36           -0.8414     0.5726     3.4408 H       
  37 H37           -4.9828    -1.3444     7.5679 H       
  38 H38           -6.1933    -0.3108     9.4425 H       
  39 H39           -5.8318     2.0602     9.9891 H       
  40 H40           -4.2602     3.4128     8.6658 H       
  41 H41           -3.0306     2.3981     6.7933 H       
  42 H42           -2.1763     1.2144     1.2543 H       
  43 H43           -4.5224     0.4733     1.1654 H       
  44 H44           -3.4168    -2.6994    -1.4680 H       
  45 H45           -1.0732    -1.9501    -1.3837 H       
@<TRIPOS>BOND
   1    1    2 1
   2    1   30 1
   3    1   31 1
   4    1   32 1
   5    2    7 1
   6    2    3 1
   7    2   23 1
   8    3    4 1
   9    4    5 2
  10    4    6 am
  11    6    7 1
  12    6   33 1
  13    7    8 1
  14    7    9 1
  15    9   14 ar
  16    9   10 ar
  17   10   11 ar
  18   10   34 1
  19   11   12 ar
  20   12   13 ar
  21   12   35 1
  22   13   14 ar
  23   13   15 1
  24   14   36 1
  25   15   16 3
  26   16   17 1
  27   17   22 ar
  28   17   18 ar
  29   18   19 ar
  30   18   37 1
  31   19   20 ar
  32   19   38 1
  33   20   21 ar
  34   20   39 1
  35   21   22 ar
  36   21   40 1
  37   22   41 1
  38   23   29 ar
  39   23   24 ar
  40   24   25 ar
  41   24   42 1
  42   25   26 ar
  43   25   43 1
  44   26   27 1
  45   26   28 ar
  46   28   29 ar
  47   28   44 1
  48   29   45 1

#	End of record

