#	Name: ASD01885389
#	Creating user name:	WinNT
#	Creation time:	15. 06. 2019 19:49

#	Modifying user name:	WinNT
#	Modification time:	15. 06. 2019 19:49

#	Program:	/corina/corina34_cracker 3.40 0067  02.08.2006

@<TRIPOS>MOLECULE
ASD01885389
  31   33    0    0    0
SMALL
NO_CHARGES


@<TRIPOS>ATOM
   1 C1            -0.0168     1.3903     0.0097 C.ar    
   2 C2             0.0021    -0.0041     0.0020 C.ar    
   3 N3            -1.1140    -0.7755     0.0172 N.2     
   4 C4            -2.1886    -0.5710    -0.6525 C.2     
   5 C5            -2.3480     0.6304    -1.5469 C.3     
   6 C6            -2.2778     1.8682    -0.6887 C.2     
   7 N7            -1.1821     2.1445     0.0191 N.am    
   8 C8             1.1907     2.0903     0.0019 C.ar    
   9 C9             2.3949     1.4189    -0.0167 C.ar    
  10 C10            2.4175     0.0333    -0.0284 C.ar    
  11 C11            1.2384    -0.6738    -0.0194 C.ar    
  12 C12           -3.2961    -1.5370    -0.5445 C.ar    
  13 C13           -3.1720    -2.6620     0.2800 C.ar    
  14 C14           -4.2441    -3.5391     0.3459 C.ar    
  15 C15           -5.3721    -3.2497    -0.4071 C.ar    
  16 N16           -5.4062    -2.1651    -1.1604 N.ar    
  17 N17           -4.4226    -1.3431    -1.2254 N.ar    
  18 O18           -3.2278     2.6207    -0.6423 O.2     
  19 Br19           4.0175     2.3900    -0.0270 Br      
  20 C20           -6.5611    -4.1747    -0.3664 C.3     
  21 H21           -1.5461     0.6485    -2.2850 H       
  22 H22           -3.3129     0.5873    -2.0522 H       
  23 H23           -1.2009     2.9325     0.5845 H       
  24 H24            1.1817     3.1702     0.0103 H       
  25 H25            3.3614    -0.4912    -0.0447 H       
  26 H26            1.2619    -1.7535    -0.0287 H       
  27 H27           -2.2700    -2.8411     0.8463 H       
  28 H28           -4.2017    -4.4225     0.9657 H       
  29 H29           -7.2363    -3.8636     0.4307 H       
  30 H30           -7.0844    -4.1360    -1.3218 H       
  31 H31           -6.2225    -5.1937    -0.1787 H       
@<TRIPOS>BOND
   1    1    2 ar
   2    1    8 ar
   3    1    7 1
   4    2    3 1
   5    2   11 ar
   6    3    4 2
   7    4    5 1
   8    4   12 1
   9    5    6 1
  10    5   21 1
  11    5   22 1
  12    6    7 am
  13    6   18 2
  14    7   23 1
  15    8    9 ar
  16    8   24 1
  17    9   10 ar
  18    9   19 1
  19   10   11 ar
  20   10   25 1
  21   11   26 1
  22   12   13 ar
  23   12   17 ar
  24   13   14 ar
  25   13   27 1
  26   14   15 ar
  27   14   28 1
  28   15   16 ar
  29   15   20 1
  30   16   17 ar
  31   20   29 1
  32   20   30 1
  33   20   31 1

#	End of record

