#	Name: ASD01903187
#	Creating user name:	WinNT
#	Creation time:	15. 06. 2019 19:54

#	Modifying user name:	WinNT
#	Modification time:	15. 06. 2019 19:54

#	Program:	/corina/corina34_cracker 3.40 0067  02.08.2006

@<TRIPOS>MOLECULE
ASD01903187
  26   28    0    0    0
SMALL
NO_CHARGES


@<TRIPOS>ATOM
   1 S1            -0.0242     1.7573    -0.0309 S.3     
   2 C2             0.0013    -0.0032    -0.0099 C.2     
   3 N3             1.2300    -0.4176    -0.0142 N.2     
   4 C4             2.1804     0.5166    -0.0326 C.2     
   5 C5             1.7374     1.7860    -0.0446 C.2     
   6 N6            -1.1204    -0.8210     0.0083 N.pl3   
   7 C7            -2.3881    -0.2605     0.1280 C.ar    
   8 N8            -2.5129     1.0424     0.3296 N.ar    
   9 C9            -3.6973     1.6139     0.4486 C.ar    
  10 C10           -4.8563     0.8653     0.3665 C.ar    
  11 C11           -4.7676    -0.5039     0.1558 C.ar    
  12 C12           -3.5129    -1.0728     0.0290 C.ar    
  13 C13            3.6270     0.1791    -0.0390 C.2     
  14 C14            4.6437     0.8890    -0.7061 C.2     
  15 N15            5.7803     0.2865    -0.4741 N.2     
  16 N16            5.5364    -0.8234     0.3440 N.pl3   
  17 C17            4.2120    -0.8710     0.6050 C.2     
  18 F18            2.5106     2.8937    -0.0637 F       
  19 Cl19          -3.8000     3.3267     0.7121 Cl      
  20 H20           -1.0203    -1.7833    -0.0623 H       
  21 H21           -5.8210     1.3406     0.4657 H       
  22 H22           -5.6583    -1.1109     0.0879 H       
  23 H23           -3.4078    -2.1350    -0.1357 H       
  24 H24            4.5079     1.7770    -1.3056 H       
  25 H25            6.2034    -1.4477     0.6697 H       
  26 H26            3.7071    -1.6101     1.2094 H       
@<TRIPOS>BOND
   1    1    2 1
   2    1    5 1
   3    2    3 2
   4    2    6 1
   5    3    4 1
   6    4    5 2
   7    4   13 1
   8    5   18 1
   9    6    7 1
  10    6   20 1
  11    7    8 ar
  12    7   12 ar
  13    8    9 ar
  14    9   10 ar
  15    9   19 1
  16   10   11 ar
  17   10   21 1
  18   11   12 ar
  19   11   22 1
  20   12   23 1
  21   13   14 1
  22   13   17 2
  23   14   15 2
  24   14   24 1
  25   15   16 1
  26   16   17 1
  27   16   25 1
  28   17   26 1

#	End of record

