#	Name: ASD06170086
#	Creating user name:	WinNT
#	Creation time:	15. 06. 2019 21:05

#	Modifying user name:	WinNT
#	Modification time:	15. 06. 2019 21:05

#	Program:	/corina/corina34_cracker 3.40 0067  02.08.2006

@<TRIPOS>MOLECULE
ASD06170086
  60   64    0    0    0
SMALL
NO_CHARGES


@<TRIPOS>ATOM
   1 N1             1.1850    -1.7688    -1.3805 N.pl3   
   2 N2             0.3153    -1.0233    -0.5794 N.am    
   3 C3             1.0366    -0.1696     0.1743 C.2     
   4 C4             2.4484    -0.3845    -0.1671 C.2     
   5 C5             2.4719    -1.3890    -1.1371 C.2     
   6 C6             3.6039     0.3168     0.3974 C.2     
   7 O7             4.7318    -0.0256     0.0934 O.2     
   8 N8             3.4182     1.3411     1.2535 N.am    
   9 C9             3.6761    -1.9419    -1.7838 C.ar    
  10 C10            4.6226    -1.0860    -2.3543 C.ar    
  11 C11            5.7464    -1.6105    -2.9574 C.ar    
  12 C12            5.9382    -2.9805    -2.9987 C.ar    
  13 C13            5.0053    -3.8342    -2.4363 C.ar    
  14 C14            3.8796    -3.3242    -1.8243 C.ar    
  15 O15            0.6005     0.6280     0.9837 O.2     
  16 C16           -1.1441    -1.1493    -0.5619 C.3     
  17 C17            0.7764    -2.8050    -2.3321 C.3     
  18 C18            4.5191     1.9395     1.8784 C.ar    
  19 C19            5.6501     1.1857     2.1643 C.ar    
  20 C20            6.7362     1.7774     2.7812 C.ar    
  21 C21            6.6957     3.1259     3.1148 C.ar    
  22 C22            5.5660     3.8773     2.8294 C.ar    
  23 C23            4.4825     3.2879     2.2072 C.ar    
  24 O24            7.7642     3.7085     3.7219 O.3     
  25 N25           10.8064     5.1070     1.3140 N.ar    
  26 C26            9.8002     4.4471     0.7900 C.ar    
  27 C27            8.7577     3.9618     1.5689 C.ar    
  28 C28            8.7679     4.1711     2.9370 C.ar    
  29 C29            9.8566     4.8825     3.4905 C.ar    
  30 C30            9.9366     5.1332     4.8682 C.ar    
  31 C31           10.9980     5.8206     5.3710 C.ar    
  32 C32           12.0140     6.2830     4.5296 C.ar    
  33 C33           11.9643     6.0530     3.1733 C.ar    
  34 C34           10.8805     5.3459     2.6288 C.ar    
  35 O35           13.0624     6.9675     5.0564 O.3     
  36 C36           13.0572     7.1748     6.4703 C.3     
  37 F37            7.8367     1.0450     3.0602 F       
  38 H38            2.5220     1.6637     1.4366 H       
  39 H39            4.4740    -0.0168    -2.3231 H       
  40 H40            6.4784    -0.9505    -3.3989 H       
  41 H41            6.8203    -3.3855    -3.4724 H       
  42 H42            5.1616    -4.9022    -2.4727 H       
  43 H43            3.1548    -3.9913    -1.3816 H       
  44 H44           -1.4358    -1.8918     0.1809 H       
  45 H45           -1.5888    -0.1871    -0.3078 H       
  46 H46           -1.4936    -1.4626    -1.5456 H       
  47 H47           -0.3090    -2.9034    -2.3184 H       
  48 H48            1.1035    -2.5274    -3.3341 H       
  49 H49            1.2309    -3.7553    -2.0518 H       
  50 H50            5.6806     0.1377     1.9050 H       
  51 H51            5.5348     4.9251     3.0895 H       
  52 H52            3.6048     3.8751     1.9808 H       
  53 H53            9.7819     4.2775    -0.2765 H       
  54 H54            7.9427     3.4228     1.1090 H       
  55 H55            9.1575     4.7817     5.5284 H       
  56 H56           11.0558     6.0115     6.4324 H       
  57 H57           12.7542     6.4148     2.5318 H       
  58 H58           12.1680     7.7390     6.7515 H       
  59 H59           13.0517     6.2107     6.9788 H       
  60 H60           13.9479     7.7327     6.7590 H       
@<TRIPOS>BOND
   1    1    2 1
   2    1    5 1
   3    1   17 1
   4    2    3 am
   5    2   16 1
   6    3    4 1
   7    3   15 2
   8    4    5 2
   9    4    6 1
  10    5    9 1
  11    6    7 2
  12    6    8 am
  13    8   18 1
  14    8   38 1
  15    9   10 ar
  16    9   14 ar
  17   10   11 ar
  18   10   39 1
  19   11   12 ar
  20   11   40 1
  21   12   13 ar
  22   12   41 1
  23   13   14 ar
  24   13   42 1
  25   14   43 1
  26   16   44 1
  27   16   45 1
  28   16   46 1
  29   17   47 1
  30   17   48 1
  31   17   49 1
  32   18   19 ar
  33   18   23 ar
  34   19   20 ar
  35   19   50 1
  36   20   21 ar
  37   20   37 1
  38   21   22 ar
  39   21   24 1
  40   22   23 ar
  41   22   51 1
  42   23   52 1
  43   24   28 1
  44   25   26 ar
  45   25   34 ar
  46   26   27 ar
  47   26   53 1
  48   27   28 ar
  49   27   54 1
  50   28   29 ar
  51   29   30 ar
  52   29   34 ar
  53   30   31 ar
  54   30   55 1
  55   31   32 ar
  56   31   56 1
  57   32   33 ar
  58   32   35 1
  59   33   34 ar
  60   33   57 1
  61   35   36 1
  62   36   58 1
  63   36   59 1
  64   36   60 1

#	End of record

