#	Name: ASD01410827
#	Creating user name:	WinNT
#	Creation time:	15. 06. 2019 19:18

#	Modifying user name:	WinNT
#	Modification time:	15. 06. 2019 19:18

#	Program:	/corina/corina34_cracker 3.40 0067  02.08.2006

@<TRIPOS>MOLECULE
ASD01410827
 126  132    0    0    0
SMALL
NO_CHARGES


@<TRIPOS>ATOM
   1 C1             1.9022     0.8878     2.9240 C.3     
   2 C2             1.1424    -0.4297     2.6447 C.3     
   3 N3             1.1447    -1.1389     3.9408 N.am    
   4 C4             1.2353    -0.1426     5.0152 C.3     
   5 C5             1.3866     1.2409     4.3459 C.3     
   6 O6             3.3152     0.6745     2.9286 O.3     
   7 C7            -0.0189    -0.1736     5.8501 C.2     
   8 O8            -0.9086    -0.9520     5.5791 O.2     
   9 N9            -0.1518     0.6636     6.8979 N.am    
  10 C10            1.9353    -1.2827     1.6482 C.3     
  11 C11            1.2359    -3.3891     2.8954 C.3     
  12 C12            1.1100    -2.4748     4.0815 C.2     
  13 O13            0.9751    -2.9523     5.1881 O.2     
  14 C14           -0.0030    -4.2836     2.8189 C.3     
  15 C15           -1.1411    -3.5214     2.1374 C.3     
  16 C16            0.3247    -5.5407     2.0107 C.3     
  17 C17           -0.4315    -4.6833     4.2323 C.3     
  18 C18           -1.4190     0.7248     7.6304 C.3     
  19 C19           -2.6249     1.1088     6.8121 C.2     
  20 N20           -2.4757     1.4774     5.5243 N.am    
  21 O21           -3.7294     1.0863     7.3124 O.2     
  22 S22           -3.7833     2.0099     4.6587 S.o2    
  23 C23           -4.2718     3.5521     5.4795 C.3     
  24 C24           -3.1248     4.3856     6.0545 C.3     
  25 C25           -1.6270    -0.2776     8.7674 C.3     
  26 C26           -1.3723     1.1981     9.0846 C.3     
  27 C27           -5.4757     4.3050     4.9097 C.3     
  28 C28           -5.5995     3.5578     6.2399 C.3     
  29 O29           -3.2613     2.2776     3.3645 O.2     
  30 O30           -4.7682     1.0052     4.8581 O.2     
  31 C31           -3.0221    -0.8050     8.9836 C.2     
  32 C32           -3.2581    -2.0902     8.8914 C.2     
  33 C33            4.0949     1.7069     2.5221 C.ar    
  34 C34            5.5053     1.6089     2.5523 C.ar    
  35 C35            3.5343     2.8820     2.0615 C.ar    
  36 C36            4.3650     3.9299     1.6483 C.ar    
  37 N37            5.6804     3.8252     1.6867 N.ar    
  38 C38            6.2812     2.7119     2.1179 C.ar    
  39 C39            3.7527     5.1881     1.1551 C.ar    
  40 N40            2.4320     5.3041     1.1118 N.ar    
  41 C41            1.8490     6.4036     0.6809 C.ar    
  42 C42            2.5990     7.4849     0.2547 C.ar    
  43 C43            3.9839     7.4059     0.2834 C.ar    
  44 C44            4.5697     6.2400     0.7466 C.ar    
  45 C45            0.3445     6.4845     0.6511 C.3     
  46 C46           -0.1556     7.1540     1.9328 C.3     
  47 C47           -0.0981     7.3075    -0.5603 C.3     
  48 C48            7.6837     2.6177     2.1527 C.ar    
  49 C49            8.2767     1.4591     2.6019 C.ar    
  50 C50            7.5004     0.3758     3.0236 C.ar    
  51 C51            6.1412     0.4430     3.0037 C.ar    
  52 Cl52           8.6617     3.9541     1.6318 Cl      
  53 O53            9.6319     1.3676     2.6352 O.3     
  54 C54           10.1877     0.1401     3.1112 C.3     
  55 C55           11.7150     0.2243     3.0759 C.3     
  56 O56           12.1584     1.2225     3.9973 O.3     
  57 C57           13.5778     1.3823     4.0426 C.3     
  58 N58            1.3565    -2.6323     1.6513 N.am    
  59 O59            0.9185    -2.4422    -0.6326 O.3     
  60 C60            0.4492    -3.0957    -1.8413 C.3     
  61 C61           -0.9928    -3.5659    -1.6398 C.3     
  62 C62            0.5054    -2.1090    -3.0092 C.3     
  63 C63            1.3404    -4.3008    -2.1484 C.3     
  64 C64            0.9323    -3.1786     0.4945 C.2     
  65 O65            0.5622    -4.3357     0.4688 O.2     
  66 H66            1.6271     1.6588     2.2043 H       
  67 H67            0.1269    -0.2366     2.2987 H       
  68 H68            2.1043    -0.3491     5.6400 H       
  69 H69            2.1159     1.8497     4.8801 H       
  70 H70            0.4242     1.7498     4.2914 H       
  71 H71            0.5916     1.2255     7.1671 H       
  72 H72            1.8591    -0.8508     0.6503 H       
  73 H73            2.9810    -1.3289     1.9522 H       
  74 H74            2.1201    -4.0143     3.0192 H       
  75 H75           -0.8359    -3.2366     1.1305 H       
  76 H76           -2.0237    -4.1587     2.0829 H       
  77 H77           -1.3746    -2.6258     2.7132 H       
  78 H78            1.4001    -5.5933     1.8408 H       
  79 H79            0.0007    -6.4226     2.5632 H       
  80 H80           -0.1931    -5.5017     1.0523 H       
  81 H81           -0.6649    -3.7878     4.8081 H       
  82 H82           -1.3141    -5.3206     4.1778 H       
  83 H83            0.3794    -5.2263     4.7179 H       
  84 H84           -1.6026     1.4307     5.1045 H       
  85 H85           -2.7176     5.0297     5.2751 H       
  86 H86           -3.4972     4.9990     6.8750 H       
  87 H87           -2.3425     3.7220     6.4229 H       
  88 H88           -0.8209    -0.9827     8.9704 H       
  89 H89           -0.3987     1.4636     9.4965 H       
  90 H90           -2.2138     1.7869     9.4496 H       
  91 H91           -5.4507     5.3941     4.9447 H       
  92 H92           -5.9741     3.8736     4.0416 H       
  93 H93           -6.1796     2.6350     6.2467 H       
  94 H94           -5.6560     4.1556     7.1496 H       
  95 H95           -3.8273    -0.1233     9.2147 H       
  96 H96           -2.4528    -2.7719     8.6603 H       
  97 H97           -4.2578    -2.4682     9.0463 H       
  98 H98            2.4607     2.9916     2.0200 H       
  99 H99            2.1113     8.3820    -0.0972 H       
 100 H100           4.5913     8.2366    -0.0444 H       
 101 H101           5.6448     6.1443     0.7829 H       
 102 H102          -0.0721     5.4798     0.5797 H       
 103 H103           0.2609     8.1587     2.0043 H       
 104 H104          -1.2439     7.2125     1.9113 H       
 105 H105           0.1597     6.5677     2.7958 H       
 106 H106          -1.1863     7.3661    -0.5818 H       
 107 H107           0.3185     8.3123    -0.4888 H       
 108 H108           0.2582     6.8306    -1.4734 H       
 109 H109           7.9850    -0.5242     3.3721 H       
 110 H110           5.5532    -0.4012     3.3322 H       
 111 H111           9.8570    -0.0356     4.1348 H       
 112 H112           9.8543    -0.6803     2.4757 H       
 113 H113          12.1386    -0.7408     3.3541 H       
 114 H114          12.0412     0.4878     2.0699 H       
 115 H115          13.8333     2.1576     4.7649 H       
 116 H116          14.0400     0.4413     4.3408 H       
 117 H117          13.9427     1.6699     3.0566 H       
 118 H118          -1.6277    -2.7073    -1.4210 H       
 119 H119          -1.3451    -4.0565    -2.5471 H       
 120 H120          -1.0328    -4.2689    -0.8077 H       
 121 H121           1.5327    -1.7740    -3.1528 H       
 122 H122           0.1531    -2.5995    -3.9166 H       
 123 H123          -0.1295    -1.2504    -2.7904 H       
 124 H124           1.3003    -5.0038    -1.3164 H       
 125 H125           0.9880    -4.7914    -3.0558 H       
 126 H126           2.3677    -3.9659    -2.2920 H       
@<TRIPOS>BOND
   1    1    2 1
   2    1    6 1
   3    1    5 1
   4    1   66 1
   5    2    3 1
   6    2   10 1
   7    2   67 1
   8    3    4 1
   9    3   12 am
  10    4    5 1
  11    4    7 1
  12    4   68 1
  13    5   69 1
  14    5   70 1
  15    6   33 1
  16    7    8 2
  17    7    9 am
  18    9   18 1
  19    9   71 1
  20   10   58 1
  21   10   72 1
  22   10   73 1
  23   11   12 1
  24   11   14 1
  25   11   58 1
  26   11   74 1
  27   12   13 2
  28   14   15 1
  29   14   16 1
  30   14   17 1
  31   15   75 1
  32   15   76 1
  33   15   77 1
  34   16   78 1
  35   16   79 1
  36   16   80 1
  37   17   81 1
  38   17   82 1
  39   17   83 1
  40   18   19 1
  41   18   25 1
  42   18   26 1
  43   19   20 am
  44   19   21 2
  45   20   22 am
  46   20   84 1
  47   22   23 1
  48   22   29 2
  49   22   30 2
  50   23   24 1
  51   23   27 1
  52   23   28 1
  53   24   85 1
  54   24   86 1
  55   24   87 1
  56   25   26 1
  57   25   31 1
  58   25   88 1
  59   26   89 1
  60   26   90 1
  61   27   28 1
  62   27   91 1
  63   27   92 1
  64   28   93 1
  65   28   94 1
  66   31   32 2
  67   31   95 1
  68   32   96 1
  69   32   97 1
  70   33   34 ar
  71   33   35 ar
  72   34   38 ar
  73   34   51 ar
  74   35   36 ar
  75   35   98 1
  76   36   37 ar
  77   36   39 1
  78   37   38 ar
  79   38   48 ar
  80   39   40 ar
  81   39   44 ar
  82   40   41 ar
  83   41   42 ar
  84   41   45 1
  85   42   43 ar
  86   42   99 1
  87   43   44 ar
  88   43  100 1
  89   44  101 1
  90   45   46 1
  91   45   47 1
  92   45  102 1
  93   46  103 1
  94   46  104 1
  95   46  105 1
  96   47  106 1
  97   47  107 1
  98   47  108 1
  99   48   49 ar
 100   48   52 1
 101   49   50 ar
 102   49   53 1
 103   50   51 ar
 104   50  109 1
 105   51  110 1
 106   53   54 1
 107   54   55 1
 108   54  111 1
 109   54  112 1
 110   55   56 1
 111   55  113 1
 112   55  114 1
 113   56   57 1
 114   57  115 1
 115   57  116 1
 116   57  117 1
 117   58   64 am
 118   59   60 1
 119   59   64 1
 120   60   61 1
 121   60   62 1
 122   60   63 1
 123   61  118 1
 124   61  119 1
 125   61  120 1
 126   62  121 1
 127   62  122 1
 128   62  123 1
 129   63  124 1
 130   63  125 1
 131   63  126 1
 132   64   65 2

#	End of record

