#	Name: ASD05313037
#	Creating user name:	WinNT
#	Creation time:	15. 06. 2019 20:58

#	Modifying user name:	WinNT
#	Modification time:	15. 06. 2019 20:58

#	Program:	/corina/corina34_cracker 3.40 0067  02.08.2006

@<TRIPOS>MOLECULE
ASD05313037
  37   40    0    0    0
SMALL
NO_CHARGES


@<TRIPOS>ATOM
   1 C1            -0.0723     0.8201     1.0217 C.2     
   2 C2             0.1132    -0.6167     0.5954 C.3     
   3 N3             0.9293     1.7322     1.0478 N.pl3   
   4 N4             1.4566    -0.7174    -0.0056 N.am    
   5 C5             2.5708    -0.0354     0.6703 C.3     
   6 C6             2.3162     1.4767     0.6624 C.3     
   7 N7            -0.9049     2.6438     1.7045 N.2     
   8 N8            -1.1581     1.4117     1.4235 N.2     
   9 C9             0.3713     2.8927     1.4915 C.2     
  10 C10            2.9874     5.4467     1.6277 C.ar    
  11 N11            2.3683     4.2994     1.4453 N.ar    
  12 C12            1.0648     4.1827     1.6977 C.ar    
  13 C13            0.3638     5.3014     2.1606 C.ar    
  14 C14            1.0593     6.4840     2.3360 C.ar    
  15 N15            2.3548     6.5184     2.0626 N.ar    
  16 C16            1.6574    -1.4148    -1.1413 C.2     
  17 O17            2.7495    -1.4052    -1.6755 O.2     
  18 C18            0.5511    -2.1903    -1.7368 C.ar    
  19 C19            0.3200    -2.1387    -3.1147 C.ar    
  20 C20           -0.7153    -2.8663    -3.6650 C.ar    
  21 C21           -1.5245    -3.6467    -2.8542 C.ar    
  22 C22           -1.2995    -3.7007    -1.4869 C.ar    
  23 C23           -0.2649    -2.9829    -0.9266 C.ar    
  24 F24           -2.5368    -4.3571    -3.3981 F       
  25 Cl25           1.3327    -1.1611    -4.1307 Cl      
  26 H26            0.0433    -1.2739     1.4621 H       
  27 H27           -0.6445    -0.8873    -0.1400 H       
  28 H28            2.6424    -0.3872     1.6995 H       
  29 H29            3.5016    -0.2506     0.1455 H       
  30 H30            2.4947     1.8708    -0.3381 H       
  31 H31            2.9866     1.9626     1.3712 H       
  32 H32            4.0452     5.5107     1.4192 H       
  33 H33           -0.6931     5.2432     2.3750 H       
  34 H34            0.5521     7.3688     2.6914 H       
  35 H35           -0.8956    -2.8273    -4.7291 H       
  36 H36           -1.9338    -4.3101    -0.8602 H       
  37 H37           -0.0881    -3.0300     0.1378 H       
@<TRIPOS>BOND
   1    1    2 1
   2    1    3 1
   3    1    8 2
   4    2    4 1
   5    2   26 1
   6    2   27 1
   7    3    6 1
   8    3    9 1
   9    4    5 1
  10    4   16 am
  11    5    6 1
  12    5   28 1
  13    5   29 1
  14    6   30 1
  15    6   31 1
  16    7    8 1
  17    7    9 2
  18    9   12 1
  19   10   11 ar
  20   10   15 ar
  21   10   32 1
  22   11   12 ar
  23   12   13 ar
  24   13   14 ar
  25   13   33 1
  26   14   15 ar
  27   14   34 1
  28   16   17 2
  29   16   18 1
  30   18   19 ar
  31   18   23 ar
  32   19   20 ar
  33   19   25 1
  34   20   21 ar
  35   20   35 1
  36   21   22 ar
  37   21   24 1
  38   22   23 ar
  39   22   36 1
  40   23   37 1

#	End of record

