#	Name: ASD01028708
#	Creating user name:	WinNT
#	Creation time:	15. 06. 2019 18:58

#	Modifying user name:	WinNT
#	Modification time:	15. 06. 2019 18:58

#	Program:	/corina/corina34_cracker 3.40 0067  02.08.2006

@<TRIPOS>MOLECULE
ASD01028708
  46   50    0    0    0
SMALL
NO_CHARGES


@<TRIPOS>ATOM
   1 C1            -0.0165     1.3688     0.0096 C.2     
   2 N2             0.0021    -0.0041     0.0020 N.pl3   
   3 C3             1.1849    -0.6817    -0.0125 C.2     
   4 C4             2.3659    -0.0063    -0.0197 C.2     
   5 C5             2.3749     1.4087    -0.0118 C.2     
   6 C6             1.1974     2.0883     0.0018 C.2     
   7 N7            -1.2880     1.7347     0.0183 N.2     
   8 N8            -2.0362     0.6880     0.0167 N.2     
   9 C9            -1.3016    -0.3945     0.0119 C.2     
  10 C10            3.6472    -0.7550    -0.0355 C.ar    
  11 C11            4.0007    -1.5576     1.0469 C.ar    
  12 C12           -1.8068    -1.8143     0.0081 C.3     
  13 C13           -3.3137    -1.8114     0.0223 C.ar    
  14 C14           -4.0125    -1.8028    -1.1829 C.ar    
  15 C15           -5.3734    -1.7999    -1.2059 C.ar    
  16 C16           -6.0917    -1.8061     0.0023 C.ar    
  17 C17           -5.3787    -1.8154     1.2273 C.ar    
  18 C18           -3.9745    -1.8228     1.2128 C.ar    
  19 N19           -7.4286    -1.8029     0.0088 N.ar    
  20 C20           -8.1058    -1.8083     1.1305 C.ar    
  21 C21           -7.4664    -1.8171     2.3742 C.ar    
  22 C22           -6.0978    -1.8216     2.4365 C.ar    
  23 C23            4.4972    -0.6618    -1.1353 C.ar    
  24 C24            5.6899    -1.3610    -1.1458 C.ar    
  25 C25            6.0399    -2.1536    -0.0652 C.ar    
  26 C26            5.1953    -2.2533     1.0280 C.ar    
  27 F27            6.5150    -1.2713    -2.2118 F       
  28 F28            5.5416    -3.0276     2.0796 F       
  29 F29           -1.3525    -2.4679    -1.1424 F       
  30 O30           -8.2006    -1.8212     3.5179 O.3     
  31 C31           -9.6225    -1.8160     3.3760 C.3     
  32 F32           -1.3311    -2.4815     1.1420 F       
  33 F33            1.1897     3.4393     0.0088 F       
  34 H34            1.1844    -1.7617    -0.0179 H       
  35 H35            3.3119     1.9458    -0.0172 H       
  36 H36            3.3427    -1.6359     1.8997 H       
  37 H37           -3.4655    -1.7980    -2.1141 H       
  38 H38           -5.8994    -1.7925    -2.1491 H       
  39 H39           -3.4218    -1.8302     2.1406 H       
  40 H40           -9.1852    -1.8055     1.0936 H       
  41 H41           -5.5853    -1.8288     3.3872 H       
  42 H42            4.2248    -0.0445    -1.9786 H       
  43 H43            6.9719    -2.6990    -0.0770 H       
  44 H44           -9.9303    -0.9221     2.8335 H       
  45 H45           -9.9358    -2.7020     2.8237 H       
  46 H46          -10.0861    -1.8201     4.3624 H       
@<TRIPOS>BOND
   1    1    2 1
   2    1    6 1
   3    1    7 2
   4    2    3 1
   5    2    9 1
   6    3    4 2
   7    3   34 1
   8    4    5 1
   9    4   10 1
  10    5    6 2
  11    5   35 1
  12    6   33 1
  13    7    8 1
  14    8    9 2
  15    9   12 1
  16   10   23 ar
  17   10   11 ar
  18   11   26 ar
  19   11   36 1
  20   12   13 1
  21   12   29 1
  22   12   32 1
  23   13   14 ar
  24   13   18 ar
  25   14   15 ar
  26   14   37 1
  27   15   16 ar
  28   15   38 1
  29   16   17 ar
  30   16   19 ar
  31   17   18 ar
  32   17   22 ar
  33   18   39 1
  34   19   20 ar
  35   20   21 ar
  36   20   40 1
  37   21   22 ar
  38   21   30 1
  39   22   41 1
  40   23   24 ar
  41   23   42 1
  42   24   25 ar
  43   24   27 1
  44   25   26 ar
  45   25   43 1
  46   26   28 1
  47   30   31 1
  48   31   44 1
  49   31   45 1
  50   31   46 1

#	End of record

