#	Name: ASD01812526
#	Creating user name:	WinNT
#	Creation time:	15. 06. 2019 19:28

#	Modifying user name:	WinNT
#	Modification time:	15. 06. 2019 19:28

#	Program:	/corina/corina34_cracker 3.40 0067  02.08.2006

@<TRIPOS>MOLECULE
ASD01812526
  46   50    0    0    0
SMALL
NO_CHARGES


@<TRIPOS>ATOM
   1 C1            -0.0177     1.4559     0.0100 C.ar    
   2 C2             0.0021    -0.0041     0.0020 C.ar    
   3 C3            -1.2308    -0.7010     0.0105 C.ar    
   4 C4            -2.4445     0.0179     0.0269 C.ar    
   5 C5            -2.4564     1.3721     0.0348 C.ar    
   6 C6            -1.2629     2.1111     0.0315 C.ar    
   7 C7            -1.2223    -2.1043     0.0029 C.ar    
   8 C8            -0.0349    -2.7735    -0.0125 C.ar    
   9 C9             1.1743    -2.0857    -0.0203 C.ar    
  10 C10            1.2024    -0.7215    -0.0133 C.ar    
  11 N11            1.1113     2.1837     0.0032 N.2     
  12 C12            1.0868     3.4848     0.0109 C.2     
  13 N13           -0.0648     4.2045     0.0262 N.am    
  14 C14           -1.2648     3.5791     0.0393 C.2     
  15 C15           -3.7504    -0.7341     0.0354 C.3     
  16 C16           -4.1099    -1.1006     1.4522 C.ar    
  17 C17           -3.6806    -2.2964     1.9957 C.ar    
  18 C18           -4.8707    -0.2394     2.2284 C.ar    
  19 C19           -5.1771    -0.6171     3.5263 C.ar    
  20 C20           -4.7169    -1.8325     4.0010 C.ar    
  21 N21           -3.9908    -2.6245     3.2347 N.ar    
  22 O22           -2.3064     4.2099     0.0573 O.2     
  23 Cl23          -5.0928    -2.3178     5.6248 Cl      
  24 C24           -0.0099     5.6050     0.0342 C.ar    
  25 C25            0.0289     6.2959     1.2438 C.ar    
  26 C26            0.0835     7.6802     1.2453 C.ar    
  27 C27            0.0989     8.3730     0.0489 C.ar    
  28 C28            0.0604     7.6882    -1.1515 C.ar    
  29 C29            0.0116     6.3070    -1.1620 C.ar    
  30 O30            0.0128     5.6132     2.4192 O.3     
  31 H31           -3.4021     1.8934     0.0473 H       
  32 H32           -2.1530    -2.6520     0.0096 H       
  33 H33           -0.0328    -3.8535    -0.0183 H       
  34 H34            2.1022    -2.6382    -0.0318 H       
  35 H35            2.1472    -0.1983    -0.0202 H       
  36 H36            2.0264     4.0173     0.0051 H       
  37 H37           -4.5343    -0.1056    -0.3874 H       
  38 H38           -3.6512    -1.6413    -0.5606 H       
  39 H39           -3.0842    -2.9703     1.3985 H       
  40 H40           -5.2161     0.7036     1.8310 H       
  41 H41           -5.7673     0.0291     4.1591 H       
  42 H42            0.1137     8.2183     2.1812 H       
  43 H43            0.1408     9.4522     0.0521 H       
  44 H44            0.0726     8.2338    -2.0835 H       
  45 H45           -0.0139     5.7745    -2.1012 H       
  46 H46            0.8908     5.3806     2.7510 H       
@<TRIPOS>BOND
   1    1    2 ar
   2    1   11 1
   3    1    6 ar
   4    2   10 ar
   5    2    3 ar
   6    3    4 ar
   7    3    7 ar
   8    4    5 ar
   9    4   15 1
  10    5    6 ar
  11    5   31 1
  12    6   14 1
  13    7    8 ar
  14    7   32 1
  15    8    9 ar
  16    8   33 1
  17    9   10 ar
  18    9   34 1
  19   10   35 1
  20   11   12 2
  21   12   13 1
  22   12   36 1
  23   13   14 am
  24   13   24 1
  25   14   22 2
  26   15   16 1
  27   15   37 1
  28   15   38 1
  29   16   18 ar
  30   16   17 ar
  31   17   21 ar
  32   17   39 1
  33   18   19 ar
  34   18   40 1
  35   19   20 ar
  36   19   41 1
  37   20   21 ar
  38   20   23 1
  39   24   25 ar
  40   24   29 ar
  41   25   26 ar
  42   25   30 1
  43   26   27 ar
  44   26   42 1
  45   27   28 ar
  46   27   43 1
  47   28   29 ar
  48   28   44 1
  49   29   45 1
  50   30   46 1

#	End of record

