#	Name: ASD01918215
#	Creating user name:	WinNT
#	Creation time:	15. 06. 2019 20:11

#	Modifying user name:	WinNT
#	Modification time:	15. 06. 2019 20:11

#	Program:	/corina/corina34_cracker 3.40 0067  02.08.2006

@<TRIPOS>MOLECULE
ASD01918215
  40   43    0    0    0
SMALL
NO_CHARGES


@<TRIPOS>ATOM
   1 C1             0.0524     1.3232    -0.0358 C.ar    
   2 C2             0.1943    -0.0673    -0.2758 C.ar    
   3 C3             1.4734    -0.6580    -0.1388 C.ar    
   4 N4             2.5225     0.0929     0.2121 N.ar    
   5 C5             2.4063     1.3797     0.4377 C.ar    
   6 C6             1.1873     2.0377     0.3245 C.ar    
   7 C7            -1.2616     1.9923    -0.1709 C.ar    
   8 C8            -2.2537     1.7865     0.7881 C.ar    
   9 C9            -3.4757     2.4124     0.6580 C.ar    
  10 C10           -3.7192     3.2443    -0.4234 C.ar    
  11 C11           -2.7369     3.4520    -1.3788 C.ar    
  12 C12           -1.5096     2.8352    -1.2546 C.ar    
  13 C13           -0.9011    -0.8594    -0.6428 C.ar    
  14 C14           -0.7258    -2.1928    -0.8648 C.ar    
  15 C15            0.5296    -2.7796    -0.7318 C.ar    
  16 C16            1.6174    -2.0382    -0.3765 C.ar    
  17 S17            1.0823     3.7685     0.6375 S.o2    
  18 C18            0.0914     3.9786     2.0792 C.ar    
  19 O19            2.3928     4.1934     0.9859 O.2     
  20 O20            0.3451     4.3274    -0.4411 O.2     
  21 C21           -1.2525     4.2775     1.9562 C.ar    
  22 C22            0.6570     3.8390     3.3327 C.ar    
  23 C23           -0.1195     4.0031     4.4649 C.ar    
  24 C24           -1.4619     4.3075     4.3445 C.ar    
  25 C25           -2.0308     4.4425     3.0892 C.ar    
  26 F26           -4.9182     3.8544    -0.5469 F       
  27 F27            2.8276    -2.6256    -0.2524 F       
  28 F28           -3.3444     4.7351     2.9702 F       
  29 H29            3.2829     1.9442     0.7192 H       
  30 H30           -2.0651     1.1379     1.6308 H       
  31 H31           -4.2444     2.2537     1.3999 H       
  32 H32           -2.9314     4.1011    -2.2197 H       
  33 H33           -0.7433     3.0009    -1.9974 H       
  34 H34           -1.8801    -0.4159    -0.7489 H       
  35 H35           -1.5717    -2.8019    -1.1473 H       
  36 H36            0.6436    -3.8381    -0.9130 H       
  37 H37           -1.6951     4.3825     0.9767 H       
  38 H38            1.7062     3.6011     3.4278 H       
  39 H39            0.3234     3.8931     5.4437 H       
  40 H40           -2.0683     4.4353     5.2290 H       
@<TRIPOS>BOND
   1    1    2 ar
   2    1    6 ar
   3    1    7 1
   4    2    3 ar
   5    2   13 ar
   6    3    4 ar
   7    3   16 ar
   8    4    5 ar
   9    5    6 ar
  10    5   29 1
  11    6   17 1
  12    7    8 ar
  13    7   12 ar
  14    8    9 ar
  15    8   30 1
  16    9   10 ar
  17    9   31 1
  18   10   11 ar
  19   10   26 1
  20   11   12 ar
  21   11   32 1
  22   12   33 1
  23   13   14 ar
  24   13   34 1
  25   14   15 ar
  26   14   35 1
  27   15   16 ar
  28   15   36 1
  29   16   27 1
  30   17   18 1
  31   17   19 2
  32   17   20 2
  33   18   22 ar
  34   18   21 ar
  35   21   25 ar
  36   21   37 1
  37   22   23 ar
  38   22   38 1
  39   23   24 ar
  40   23   39 1
  41   24   25 ar
  42   24   40 1
  43   25   28 1

#	End of record

