#	Name: ASD02408119
#	Creating user name:	WinNT
#	Creation time:	15. 06. 2019 20:21

#	Modifying user name:	WinNT
#	Modification time:	15. 06. 2019 20:21

#	Program:	/corina/corina34_cracker 3.40 0067  02.08.2006

@<TRIPOS>MOLECULE
ASD02408119
  35   37    0    0    0
SMALL
NO_CHARGES


@<TRIPOS>ATOM
   1 C1             0.5297     0.6463    -0.0688 C.2     
   2 C2             0.7728    -0.6495    -0.2717 C.2     
   3 C3             1.6230     1.6834    -0.0533 C.3     
   4 C4             1.8282     2.2178    -1.4474 C.2     
   5 N5             2.7675     3.1616    -1.6512 N.am    
   6 N6             1.0935     1.7468    -2.4181 N.2     
   7 C7             1.2321     2.1838    -3.6764 C.2     
   8 C8             2.1899     3.1716    -3.9591 C.2     
   9 C9             2.9784     3.6622    -2.8867 C.2     
  10 N10            0.4467     1.6713    -4.6796 N.pl3   
  11 C11            1.0011     1.4107    -6.0175 C.3     
  12 O12            3.8240     4.5194    -3.0760 O.2     
  13 S13           -0.7383    -1.5481    -0.2207 S.3     
  14 C14           -1.6419    -0.0698     0.0822 C.2     
  15 C15           -0.8035     0.9670     0.1207 C.2     
  16 C16            0.6328    -0.0210    -6.4231 C.3     
  17 O17           -0.7771    -0.2047    -6.2732 O.3     
  18 C18           -1.2462    -0.0635    -4.9302 C.3     
  19 C19           -0.9727     1.3607    -4.4466 C.3     
  20 C20            2.3688     3.6651    -5.2915 C.1     
  21 N21            2.5107     4.0565    -6.3484 N.1     
  22 H22            1.7482    -1.0808    -0.4416 H       
  23 H23            1.3398     2.5000     0.6108 H       
  24 H24            2.5485     1.2304     0.3020 H       
  25 H25            3.2960     3.4841    -0.9044 H       
  26 H26            0.5784     2.1153    -6.7337 H       
  27 H27            2.0855     1.5177    -5.9927 H       
  28 H28           -2.7123    -0.0100     0.2125 H       
  29 H29           -1.1385     1.9788     0.2945 H       
  30 H30            0.9132    -0.1885    -7.4630 H       
  31 H31            1.1620    -0.7280    -5.7841 H       
  32 H32           -2.3176    -0.2615    -4.8961 H       
  33 H33           -0.7239    -0.7706    -4.2858 H       
  34 H34           -1.1968     1.4365    -3.3826 H       
  35 H35           -1.5927     2.0630    -5.0038 H       
@<TRIPOS>BOND
   1    1    2 2
   2    1    3 1
   3    1   15 1
   4    2   13 1
   5    2   22 1
   6    3    4 1
   7    3   23 1
   8    3   24 1
   9    4    5 1
  10    4    6 2
  11    5    9 am
  12    5   25 1
  13    6    7 1
  14    7    8 2
  15    7   10 1
  16    8    9 1
  17    8   20 1
  18    9   12 2
  19   10   11 1
  20   10   19 1
  21   11   16 1
  22   11   26 1
  23   11   27 1
  24   13   14 1
  25   14   15 2
  26   14   28 1
  27   15   29 1
  28   16   17 1
  29   16   30 1
  30   16   31 1
  31   17   18 1
  32   18   19 1
  33   18   32 1
  34   18   33 1
  35   19   34 1
  36   19   35 1
  37   20   21 3

#	End of record

