#	Name: ASD08150006
#	Creating user name:	WinNT
#	Creation time:	15. 06. 2019 21:15

#	Modifying user name:	WinNT
#	Modification time:	15. 06. 2019 21:15

#	Program:	/corina/corina34_cracker 3.40 0067  02.08.2006

@<TRIPOS>MOLECULE
ASD08150006
  42   46    0    0    0
SMALL
NO_CHARGES


@<TRIPOS>ATOM
   1 N1            -0.0155     1.2943     0.0092 N.2     
   2 C2             0.0021    -0.0041     0.0020 C.2     
   3 N3             1.1487    -0.7359    -0.0124 N.am    
   4 C4             2.3560    -0.1243    -0.0202 C.2     
   5 C5             2.3704     1.3449    -0.0129 C.ar    
   6 C6             3.5614     2.0709    -0.0195 C.ar    
   7 C7             3.5161     3.4494    -0.0117 C.ar    
   8 C8             2.2981     4.1155     0.0030 C.ar    
   9 C9             1.1115     3.4169     0.0097 C.ar    
  10 C10            1.1299     2.0209     0.0021 C.ar    
  11 O11            3.3901    -0.7667    -0.0323 O.2     
  12 C12           -1.3145    -0.7373     0.0106 C.3     
  13 S13           -2.6718     0.4599     0.0300 S.3     
  14 N14           -5.9165     1.0932     0.0643 N.2     
  15 C15           -7.2138     0.9886     0.0762 C.2     
  16 N16           -7.5749    -0.3259     0.0732 N.pl3   
  17 C17           -6.4217    -1.0691     0.0586 C.ar    
  18 N18           -6.1428    -2.3686     0.0492 N.ar    
  19 C19           -4.8946    -2.7872     0.0348 C.ar    
  20 N20           -3.8684    -1.9566     0.0285 N.ar    
  21 C21           -4.0491    -0.6390     0.0373 C.ar    
  22 C22           -5.3646    -0.1436     0.0530 C.ar    
  23 C23            1.0792    -2.1356    -0.0188 C.ar    
  24 C24            1.0558    -2.8379     1.1815 C.ar    
  25 C25            0.9872    -4.2190     1.1705 C.ar    
  26 C26            0.9419    -4.9004    -0.0320 C.ar    
  27 C27            0.9654    -4.2042    -1.2262 C.ar    
  28 C28            1.0277    -2.8239    -1.2228 C.ar    
  29 F29            1.1006    -2.1719     2.3561 F       
  30 Cl30           5.0887     1.2459    -0.0368 Cl      
  31 H31            4.4359     4.0155    -0.0168 H       
  32 H32            2.2811     5.1953     0.0096 H       
  33 H33            0.1704     3.9468     0.0215 H       
  34 H34           -1.3904    -1.3582    -0.8820 H       
  35 H35           -1.3734    -1.3678     0.8979 H       
  36 H36           -7.9025     1.8205     0.0868 H       
  37 H37           -8.4809    -0.6723     0.0802 H       
  38 H38           -4.7029    -3.8500     0.0278 H       
  39 H39            0.9694    -4.7658     2.1017 H       
  40 H40            0.8883    -5.9791    -0.0383 H       
  41 H41            0.9306    -4.7399    -2.1633 H       
  42 H42            1.0411    -2.2812    -2.1564 H       
@<TRIPOS>BOND
   1    1    2 2
   2    1   10 1
   3    2    3 1
   4    2   12 1
   5    3    4 am
   6    3   23 1
   7    4    5 1
   8    4   11 2
   9    5    6 ar
  10    5   10 ar
  11    6    7 ar
  12    6   30 1
  13    7    8 ar
  14    7   31 1
  15    8    9 ar
  16    8   32 1
  17    9   10 ar
  18    9   33 1
  19   12   13 1
  20   12   34 1
  21   12   35 1
  22   13   21 1
  23   14   15 2
  24   14   22 1
  25   15   16 1
  26   15   36 1
  27   16   17 1
  28   16   37 1
  29   17   18 ar
  30   17   22 ar
  31   18   19 ar
  32   19   20 ar
  33   19   38 1
  34   20   21 ar
  35   21   22 ar
  36   23   24 ar
  37   23   28 ar
  38   24   25 ar
  39   24   29 1
  40   25   26 ar
  41   25   39 1
  42   26   27 ar
  43   26   40 1
  44   27   28 ar
  45   27   41 1
  46   28   42 1

#	End of record

