#	Name: ASD01917866
#	Creating user name:	WinNT
#	Creation time:	15. 06. 2019 20:10

#	Modifying user name:	WinNT
#	Modification time:	15. 06. 2019 20:10

#	Program:	/corina/corina34_cracker 3.40 0067  02.08.2006

@<TRIPOS>MOLECULE
ASD01917866
  41   44    0    0    0
SMALL
NO_CHARGES


@<TRIPOS>ATOM
   1 C1             0.0063     1.2840    -0.0852 C.2     
   2 C2            -0.0029    -0.0621    -0.0776 C.2     
   3 C3            -1.2838    -0.8809    -0.0305 C.3     
   4 C4            -2.4256     0.0032     0.4765 C.3     
   5 N5            -2.3949     1.2872    -0.2400 N.am    
   6 C6            -1.2249     2.1594    -0.0368 C.3     
   7 C7            -3.4039     1.6536    -1.0549 C.2     
   8 O8            -4.3071     0.8760    -1.2910 O.2     
   9 S9             1.6743     1.8354    -0.1524 S.3     
  10 C10            2.2173     0.2147    -0.1599 C.2     
  11 N11            1.2135    -0.5888    -0.1169 N.2     
  12 C12            3.6620    -0.2111    -0.2102 C.3     
  13 O13            4.0689    -0.3556    -1.5724 O.3     
  14 C14            5.3539    -0.7377    -1.7953 C.ar    
  15 C15            5.8161    -0.8973    -3.0936 C.ar    
  16 C16            7.1227    -1.2857    -3.3175 C.ar    
  17 C17            7.9697    -1.5154    -2.2490 C.ar    
  18 C18            7.5113    -1.3574    -0.9541 C.ar    
  19 C19            6.2073    -0.9632    -0.7250 C.ar    
  20 C20           -3.4117     3.0055    -1.6632 C.2     
  21 N21           -4.2593     3.4570    -2.5657 N.2     
  22 C22           -3.8820     4.7195    -2.8156 C.2     
  23 N23           -2.8458     4.9752    -2.0718 N.2     
  24 O24           -2.5608     4.0081    -1.3973 O.3     
  25 C25           -4.5391     5.6696    -3.7833 C.3     
  26 H26           -1.5208    -1.2444    -1.0304 H       
  27 H27           -1.1509    -1.7268     0.6439 H       
  28 H28           -3.3790    -0.4930     0.2947 H       
  29 H29           -2.3032     0.1792     1.5452 H       
  30 H30           -1.2937     2.6511     0.9335 H       
  31 H31           -1.1780     2.9065    -0.8291 H       
  32 H32            4.2804     0.5437     0.2756 H       
  33 H33            3.7782    -1.1637     0.3067 H       
  34 H34            5.1548    -0.7184    -3.9285 H       
  35 H35            7.4829    -1.4105    -4.3280 H       
  36 H36            8.9909    -1.8190    -2.4261 H       
  37 H37            8.1746    -1.5381    -0.1211 H       
  38 H38            5.8497    -0.8399     0.2866 H       
  39 H39           -5.3177     6.2322    -3.2682 H       
  40 H40           -3.7932     6.3595    -4.1782 H       
  41 H41           -4.9815     5.1044    -4.6037 H       
@<TRIPOS>BOND
   1    1    2 2
   2    1    9 1
   3    1    6 1
   4    2    3 1
   5    2   11 1
   6    3    4 1
   7    3   26 1
   8    3   27 1
   9    4    5 1
  10    4   28 1
  11    4   29 1
  12    5    6 1
  13    5    7 am
  14    6   30 1
  15    6   31 1
  16    7    8 2
  17    7   20 1
  18    9   10 1
  19   10   11 2
  20   10   12 1
  21   12   13 1
  22   12   32 1
  23   12   33 1
  24   13   14 1
  25   14   15 ar
  26   14   19 ar
  27   15   16 ar
  28   15   34 1
  29   16   17 ar
  30   16   35 1
  31   17   18 ar
  32   17   36 1
  33   18   19 ar
  34   18   37 1
  35   19   38 1
  36   20   21 2
  37   20   24 1
  38   21   22 1
  39   22   23 2
  40   22   25 1
  41   23   24 1
  42   25   39 1
  43   25   40 1
  44   25   41 1

#	End of record

