#	Name: ASD01811697
#	Creating user name:	WinNT
#	Creation time:	15. 06. 2019 19:27

#	Modifying user name:	WinNT
#	Modification time:	15. 06. 2019 19:27

#	Program:	/corina/corina34_cracker 3.40 0067  02.08.2006

@<TRIPOS>MOLECULE
ASD01811697
  55   58    0    0    0
SMALL
NO_CHARGES


@<TRIPOS>ATOM
   1 C1            -0.0167     1.3805     0.0096 C.ar    
   2 C2             0.0021    -0.0041     0.0020 C.ar    
   3 C3            -1.1845    -0.7161     0.0090 C.ar    
   4 C4            -2.3942    -0.0535     0.0241 C.ar    
   5 C5            -2.4213     1.3425     0.0323 C.ar    
   6 C6            -1.2177     2.0512     0.0304 C.ar    
   7 C7             1.2777     2.1522     0.0014 C.3     
   8 C8             1.3184    -0.7376    -0.0144 C.3     
   9 C9            -1.1549    -2.2228    -0.0004 C.3     
  10 C10           -1.0078    -2.7311     1.4107 C.ar    
  11 C11           -2.1289    -2.9920     2.1833 C.ar    
  12 C12           -1.9454    -3.4589     3.4760 C.ar    
  13 C13           -0.6604    -3.6474     3.9479 C.ar    
  14 N14            0.3833    -3.3883     3.1846 N.ar    
  15 C15            0.2466    -2.9486     1.9490 C.ar    
  16 C16           -0.4493    -4.1545     5.3513 C.3     
  17 C17           -3.5309     2.3149     0.0477 C.2     
  18 N18           -3.0504     3.5703     0.0501 N.am    
  19 C19           -1.5841     3.5142     0.0402 C.3     
  20 O20           -4.7107     2.0226     0.0563 O.2     
  21 C21           -3.8575     4.7928     0.0640 C.3     
  22 C22           -4.7285     4.8146     1.3217 C.3     
  23 C23           -5.5714     6.0914     1.3363 C.3     
  24 C24           -6.4661     6.1261     0.0956 C.3     
  25 C25           -5.5951     6.1043    -1.1620 C.3     
  26 C26           -4.7522     4.8275    -1.1766 C.3     
  27 O27           -3.8929     4.7823     2.4805 O.3     
  28 H28           -3.3180    -0.6130     0.0291 H       
  29 H29            1.5800     2.3437    -1.0282 H       
  30 H30            1.1390     3.0999     0.5217 H       
  31 H31            2.0504     1.5710     0.5048 H       
  32 H32            1.6456    -0.9199     1.0092 H       
  33 H33            1.1977    -1.6891    -0.5323 H       
  34 H34            2.0641    -0.1342    -0.5322 H       
  35 H35           -2.0831    -2.6018    -0.4281 H       
  36 H36           -0.3118    -2.5659    -0.5999 H       
  37 H37           -3.1215    -2.8349     1.7878 H       
  38 H38           -2.7962    -3.6723     4.1062 H       
  39 H39            1.1251    -2.7473     1.3538 H       
  40 H40           -0.4127    -5.2438     5.3423 H       
  41 H41            0.4899    -3.7626     5.7417 H       
  42 H42           -1.2723    -3.8238     5.9848 H       
  43 H43           -1.1849     3.9949     0.9333 H       
  44 H44           -1.1966     4.0028    -0.8538 H       
  45 H45           -3.2001     5.6623     0.0623 H       
  46 H46           -5.3859     3.9452     1.3235 H       
  47 H47           -6.1919     6.1069     2.2323 H       
  48 H48           -4.9140     6.9608     1.3345 H       
  49 H49           -7.1235     5.2566     0.0974 H       
  50 H50           -7.0666     7.0357     0.1060 H       
  51 H51           -6.2325     6.1290    -2.0459 H       
  52 H52           -4.9377     6.9737    -1.1638 H       
  53 H53           -4.1317     4.8120    -2.0726 H       
  54 H54           -5.4096     3.9581    -1.1749 H       
  55 H55           -4.3789     4.7937     3.3164 H       
@<TRIPOS>BOND
   1    1    2 ar
   2    1    7 1
   3    1    6 ar
   4    2    3 ar
   5    2    8 1
   6    3    4 ar
   7    3    9 1
   8    4    5 ar
   9    4   28 1
  10    5    6 ar
  11    5   17 1
  12    6   19 1
  13    7   29 1
  14    7   30 1
  15    7   31 1
  16    8   32 1
  17    8   33 1
  18    8   34 1
  19    9   10 1
  20    9   35 1
  21    9   36 1
  22   10   11 ar
  23   10   15 ar
  24   11   12 ar
  25   11   37 1
  26   12   13 ar
  27   12   38 1
  28   13   14 ar
  29   13   16 1
  30   14   15 ar
  31   15   39 1
  32   16   40 1
  33   16   41 1
  34   16   42 1
  35   17   18 am
  36   17   20 2
  37   18   19 1
  38   18   21 1
  39   19   43 1
  40   19   44 1
  41   21   22 1
  42   21   26 1
  43   21   45 1
  44   22   23 1
  45   22   27 1
  46   22   46 1
  47   23   24 1
  48   23   47 1
  49   23   48 1
  50   24   25 1
  51   24   49 1
  52   24   50 1
  53   25   26 1
  54   25   51 1
  55   25   52 1
  56   26   53 1
  57   26   54 1
  58   27   55 1

#	End of record

