#	Name: ASD09080137
#	Creating user name:	WinNT
#	Creation time:	15. 06. 2019 21:20

#	Modifying user name:	WinNT
#	Modification time:	15. 06. 2019 21:20

#	Program:	/corina/corina34_cracker 3.40 0067  02.08.2006

@<TRIPOS>MOLECULE
ASD09080137
  62   65    0    0    0
SMALL
NO_CHARGES


@<TRIPOS>ATOM
   1 C1            -0.8185     0.0708    -3.5551 C.ar    
   2 C2             0.0401    -0.0694    -2.4785 C.ar    
   3 C3            -0.1915     0.6304    -1.3070 C.ar    
   4 C4            -1.2815     1.4733    -1.2072 C.ar    
   5 C5            -2.1484     1.6182    -2.2882 C.ar    
   6 C6            -1.9081     0.9155    -3.4671 C.ar    
   7 Cl7           -0.5217    -0.8108    -5.0208 Cl      
   8 Cl8            0.8893     0.4484     0.0393 Cl      
   9 C9            -3.3211     2.5218    -2.1861 C.ar    
  10 C10           -4.1882     2.6669    -3.2670 C.ar    
  11 C11           -5.2776     3.5084    -3.1664 C.ar    
  12 C12           -5.5093     4.2069    -1.9952 C.ar    
  13 C13           -4.6515     4.0669    -0.9192 C.ar    
  14 C14           -3.5622     3.2238    -1.0069 C.ar    
  15 C15           -6.7005     5.1241    -1.8913 C.3     
  16 C16           -7.9030     4.3404    -1.3617 C.3     
  17 N17           -7.6323     3.8978     0.0126 N.3     
  18 C18           -9.1421     5.2379    -1.3738 C.3     
  19 C19           -9.5051     5.5867    -2.8186 C.3     
  20 O20           -9.6657     4.3892    -3.6163 O.3     
  21 C21          -10.5583     4.7707    -4.6765 C.3     
  22 O22          -11.3435     5.8878    -4.2396 O.3     
  23 C23          -10.9207     6.2109    -2.8995 C.3     
  24 C24           -9.7486     5.1640    -5.9137 C.3     
  25 C25          -11.4791     3.5981    -5.0201 C.3     
  26 O26           -8.8679     6.4382    -0.6484 O.3     
  27 C27           -9.6120     8.2647     0.7150 C.ar    
  28 C28           -9.6472     9.4850     0.0665 C.ar    
  29 C29           -9.2831    10.6362     0.7395 C.ar    
  30 C30           -8.8841    10.5672     2.0613 C.ar    
  31 C31           -8.8497     9.3470     2.7101 C.ar    
  32 C32           -9.2125     8.1956     2.0366 C.ar    
  33 C33          -10.0149     7.0105    -0.0168 C.3     
  34 H34            0.8933    -0.7274    -2.5527 H       
  35 H35           -1.4616     2.0186    -0.2926 H       
  36 H36           -2.5770     1.0249    -4.3079 H       
  37 H37           -4.0080     2.1223    -4.1821 H       
  38 H38           -5.9502     3.6219    -4.0037 H       
  39 H39           -4.8366     4.6152    -0.0074 H       
  40 H40           -2.8930     3.1152    -0.1662 H       
  41 H41           -6.4706     5.9422    -1.2086 H       
  42 H42           -6.9351     5.5279    -2.8762 H       
  43 H43           -8.0779     3.4711    -1.9956 H       
  44 H44           -7.3895     4.6792     0.6029 H       
  45 H45           -8.4181     3.3898     0.3903 H       
  46 H46           -9.9753     4.7132    -0.9063 H       
  47 H47           -8.7597     6.2505    -3.2567 H       
  48 H48          -11.5852     5.7551    -2.1655 H       
  49 H49          -10.8740     7.2909    -2.7601 H       
  50 H50           -9.1442     4.3164    -6.2369 H       
  51 H51          -10.4278     5.4527    -6.7158 H       
  52 H52           -9.0969     6.0030    -5.6698 H       
  53 H53          -12.0598     3.3221    -4.1399 H       
  54 H54          -12.1547     3.8902    -5.8241 H       
  55 H55          -10.8789     2.7468    -5.3411 H       
  56 H56           -9.9590     9.5389    -0.9661 H       
  57 H57           -9.3099    11.5894     0.2326 H       
  58 H58           -8.5989    11.4665     2.5869 H       
  59 H59           -8.5372     9.2930     3.7425 H       
  60 H60           -9.1849     7.2423     2.5433 H       
  61 H61          -10.7617     7.2547    -0.7723 H       
  62 H62          -10.4345     6.2956     0.6910 H       
@<TRIPOS>BOND
   1    1    2 ar
   2    1    7 1
   3    1    6 ar
   4    2    3 ar
   5    2   34 1
   6    3    4 ar
   7    3    8 1
   8    4    5 ar
   9    4   35 1
  10    5    6 ar
  11    5    9 1
  12    6   36 1
  13    9   10 ar
  14    9   14 ar
  15   10   11 ar
  16   10   37 1
  17   11   12 ar
  18   11   38 1
  19   12   13 ar
  20   12   15 1
  21   13   14 ar
  22   13   39 1
  23   14   40 1
  24   15   16 1
  25   15   41 1
  26   15   42 1
  27   16   17 1
  28   16   18 1
  29   16   43 1
  30   17   44 1
  31   17   45 1
  32   18   26 1
  33   18   19 1
  34   18   46 1
  35   19   20 1
  36   19   23 1
  37   19   47 1
  38   20   21 1
  39   21   22 1
  40   21   24 1
  41   21   25 1
  42   22   23 1
  43   23   48 1
  44   23   49 1
  45   24   50 1
  46   24   51 1
  47   24   52 1
  48   25   53 1
  49   25   54 1
  50   25   55 1
  51   26   33 1
  52   27   28 ar
  53   27   32 ar
  54   27   33 1
  55   28   29 ar
  56   28   56 1
  57   29   30 ar
  58   29   57 1
  59   30   31 ar
  60   30   58 1
  61   31   32 ar
  62   31   59 1
  63   32   60 1
  64   33   61 1
  65   33   62 1

#	End of record

