#	Name: ASD01120364
#	Creating user name:	WinNT
#	Creation time:	15. 06. 2019 18:59

#	Modifying user name:	WinNT
#	Modification time:	15. 06. 2019 18:59

#	Program:	/corina/corina34_cracker 3.40 0067  02.08.2006

@<TRIPOS>MOLECULE
ASD01120364
  42   44    0    0    0
SMALL
NO_CHARGES


@<TRIPOS>ATOM
   1 C1            -0.0319     1.3613    -0.5232 C.ar    
   2 C2            -0.0093    -0.0220    -0.4419 C.ar    
   3 C3             1.1828    -0.7024    -0.3162 C.ar    
   4 C4             2.3862    -0.0044    -0.2691 C.ar    
   5 C5             2.3786     1.4012    -0.3507 C.ar    
   6 C6             1.1509     2.0850    -0.4791 C.ar    
   7 N7             3.6976    -0.4018    -0.1511 N.pl3   
   8 C8             4.5038     0.7204    -0.1573 C.2     
   9 C9             3.7228     1.8282    -0.2778 C.2     
  10 C10            4.2058     3.2549    -0.3257 C.3     
  11 C11            4.3278     3.7033    -1.7835 C.3     
  12 C12            4.8107     5.1300    -1.8314 C.2     
  13 O13            4.9924     5.7377    -3.0144 O.3     
  14 O14            5.0344     5.7269    -0.8050 O.2     
  15 C15            5.9684     0.7178    -0.0514 C.2     
  16 O16            6.5808     1.7680    -0.0670 O.2     
  17 O17            6.6341    -0.4493     0.0632 O.3     
  18 C18            1.1253     3.5635    -0.5666 C.ar    
  19 C19            0.6033     4.1888    -1.6985 C.ar    
  20 C20            0.5822     5.5666    -1.7742 C.ar    
  21 C21            1.0779     6.3271    -0.7305 C.ar    
  22 C22            1.5971     5.7124     0.3952 C.ar    
  23 C23            1.6179     4.3359     0.4852 C.ar    
  24 N24            2.1255     6.5335     1.5076 N.pl3   
  25 O25            2.1030     7.7489     1.4316 O.2     
  26 O26            2.5828     5.9937     2.4991 O.2     
  27 N27            1.1833    -2.1802    -0.2305 N.pl3   
  28 O28            0.1315    -2.7929    -0.2711 O.2     
  29 O29            2.2356    -2.7834    -0.1194 O.2     
  30 H30           -0.9746     1.8781    -0.6259 H       
  31 H31           -0.9371    -0.5737    -0.4770 H       
  32 H32            4.0056    -1.3185    -0.0757 H       
  33 H33            3.4943     3.8970     0.1935 H       
  34 H34            5.1796     3.3253     0.1588 H       
  35 H35            5.0392     3.0612    -2.3028 H       
  36 H36            3.3539     3.6329    -2.2680 H       
  37 H37            5.3034     6.6531    -2.9946 H       
  38 H38            7.5976    -0.4005     0.1300 H       
  39 H39            0.2167     3.5961    -2.5143 H       
  40 H40            0.1783     6.0521    -2.6503 H       
  41 H41            1.0599     7.4051    -0.7946 H       
  42 H42            2.0231     3.8572     1.3645 H       
@<TRIPOS>BOND
   1    1    2 ar
   2    1    6 ar
   3    1   30 1
   4    2    3 ar
   5    2   31 1
   6    3   27 1
   7    3    4 ar
   8    4    5 ar
   9    4    7 1
  10    5    6 ar
  11    5    9 1
  12    6   18 1
  13    7    8 1
  14    7   32 1
  15    8    9 2
  16    8   15 1
  17    9   10 1
  18   10   11 1
  19   10   33 1
  20   10   34 1
  21   11   12 1
  22   11   35 1
  23   11   36 1
  24   12   13 1
  25   12   14 2
  26   13   37 1
  27   15   16 2
  28   15   17 1
  29   17   38 1
  30   18   19 ar
  31   18   23 ar
  32   19   20 ar
  33   19   39 1
  34   20   21 ar
  35   20   40 1
  36   21   22 ar
  37   21   41 1
  38   22   23 ar
  39   22   24 1
  40   23   42 1
  41   24   25 2
  42   24   26 2
  43   27   28 2
  44   27   29 2

#	End of record

