#	Name: ASD09116239
#	Creating user name:	WinNT
#	Creation time:	15. 06. 2019 21:21

#	Modifying user name:	WinNT
#	Modification time:	15. 06. 2019 21:21

#	Program:	/corina/corina34_cracker 3.40 0067  02.08.2006

@<TRIPOS>MOLECULE
ASD09116239
  78   85    0    0    0
SMALL
NO_CHARGES


@<TRIPOS>ATOM
   1 N1            -0.1026     1.6903    -0.2860 N.2     
   2 N2            -0.1242     0.3427    -0.6798 N.pl3   
   3 C3             1.1541     2.0657    -0.2750 C.2     
   4 N4             1.9214     1.0315    -0.6390 N.2     
   5 C5             1.1646    -0.0160    -0.8868 C.2     
   6 N6             1.6162     3.3381     0.0613 N.pl3   
   7 C7             2.9923     3.5844     0.1422 C.ar    
   8 C8             3.4935     4.8384    -0.1818 C.ar    
   9 C9             5.7140     4.0715     0.3019 C.ar    
  10 C10            3.8553     2.5764     0.5521 C.ar    
  11 C11           -1.2517    -0.4672    -0.8281 C.ar    
  12 N12           -1.2152    -1.5105    -1.6435 N.ar    
  13 N13           -2.2280    -2.2815    -1.8234 N.ar    
  14 C14           -3.3767    -2.0748    -1.1996 C.ar    
  15 C15           -3.5018    -1.0097    -0.3031 C.ar    
  16 C16           -2.4168    -0.1805    -0.1122 C.ar    
  17 C17           -4.5615    -2.9291    -1.4460 C.ar    
  18 C18           -5.7859    -2.3200    -1.7256 C.ar    
  19 C19           -5.8586    -0.8209    -1.8244 C.3     
  20 C20           -5.8452    -0.1706    -0.4437 C.3     
  21 C21           -4.7870    -0.8153     0.4476 C.3     
  22 C22           -4.4691    -4.3157    -1.3982 C.ar    
  23 C23           -5.5976    -5.0838    -1.6099 C.ar    
  24 C24           -6.8133    -4.4759    -1.8660 C.ar    
  25 C25           -6.9078    -3.0961    -1.9229 C.ar    
  26 N26            1.6074    -1.2624    -1.2868 N.pl3   
  27 C27            4.8504     5.0813    -0.1020 C.ar    
  28 N28            7.0895     4.3177     0.3828 N.3     
  29 C29            7.8452     3.3584    -0.4347 C.3     
  30 C30            5.2121     2.8193     0.6319 C.ar    
  31 C31            7.4011     5.6994    -0.0090 C.3     
  32 C32            8.9002     5.9514     0.1688 C.3     
  33 N33            9.6559     4.9921    -0.6487 N.3     
  34 C34            9.3443     3.6104    -0.2569 C.3     
  35 C35           11.0995     5.2505    -0.5638 C.3     
  36 C36           11.8796     4.2437    -1.4397 C.3     
  37 C37           11.4385     6.6463    -1.1706 C.3     
  38 C38           12.6165     5.1259    -2.4933 C.3     
  39 C39           10.7007     6.6644    -2.5441 C.3     
  40 C40           11.4808     5.6575    -3.4201 C.3     
  41 C41           12.9174     6.4076    -1.6388 C.3     
  42 H42            0.9843     4.0523     0.2390 H       
  43 H43            2.8220     5.6235    -0.4966 H       
  44 H44            3.4650     1.6026     0.8087 H       
  45 H45           -2.4683     0.6638     0.5592 H       
  46 H46           -5.0046    -0.4595    -2.3972 H       
  47 H47           -6.7769    -0.5418    -2.3411 H       
  48 H48           -5.6262     0.8919    -0.5496 H       
  49 H49           -6.8250    -0.2899     0.0187 H       
  50 H50           -5.1505    -1.7832     0.7927 H       
  51 H51           -4.6050    -0.1735     1.3096 H       
  52 H52           -3.5198    -4.7897    -1.1970 H       
  53 H53           -5.5305    -6.1612    -1.5756 H       
  54 H54           -7.6938    -5.0813    -2.0226 H       
  55 H55           -7.8602    -2.6278    -2.1224 H       
  56 H56            2.5560    -1.4240    -1.4088 H       
  57 H57            0.9696    -1.9758    -1.4455 H       
  58 H58            5.2402     6.0564    -0.3540 H       
  59 H59            7.6070     2.3432    -0.1173 H       
  60 H60            7.5772     3.4841    -1.4837 H       
  61 H61            5.8838     2.0339     0.9456 H       
  62 H62            7.1281     5.8517    -1.0531 H       
  63 H63            6.8392     6.3909     0.6188 H       
  64 H64            9.1385     6.9666    -0.1486 H       
  65 H65            9.1683     5.8257     1.2178 H       
  66 H66            9.6174     3.4581     0.7873 H       
  67 H67            9.9063     2.9189    -0.8847 H       
  68 H68           11.4348     5.1928     0.4717 H       
  69 H69           12.5999     3.6924    -0.8352 H       
  70 H70           11.1920     3.5569    -1.9333 H       
  71 H71           11.2594     7.5039    -0.5222 H       
  72 H72           13.4633     4.6595    -2.9968 H       
  73 H73            9.6664     6.3420    -2.4242 H       
  74 H74           10.7405     7.6610    -2.9837 H       
  75 H75           11.9041     6.1592    -4.2903 H       
  76 H76           10.8300     4.8402    -3.7308 H       
  77 H77           13.2900     7.2289    -2.2511 H       
  78 H78           13.5819     6.1940    -0.8016 H       
@<TRIPOS>BOND
   1    1    2 1
   2    1    3 2
   3    2   11 1
   4    2    5 1
   5    3    4 1
   6    3    6 1
   7    4    5 2
   8    5   26 1
   9    6    7 1
  10    6   42 1
  11    7    8 ar
  12    7   10 ar
  13    8   27 ar
  14    8   43 1
  15    9   30 ar
  16    9   28 1
  17    9   27 ar
  18   10   30 ar
  19   10   44 1
  20   11   12 ar
  21   11   16 ar
  22   12   13 ar
  23   13   14 ar
  24   14   15 ar
  25   14   17 1
  26   15   16 ar
  27   15   21 1
  28   16   45 1
  29   17   18 ar
  30   17   22 ar
  31   18   19 1
  32   18   25 ar
  33   19   20 1
  34   19   46 1
  35   19   47 1
  36   20   21 1
  37   20   48 1
  38   20   49 1
  39   21   50 1
  40   21   51 1
  41   22   23 ar
  42   22   52 1
  43   23   24 ar
  44   23   53 1
  45   24   25 ar
  46   24   54 1
  47   25   55 1
  48   26   56 1
  49   26   57 1
  50   27   58 1
  51   28   31 1
  52   28   29 1
  53   29   34 1
  54   29   59 1
  55   29   60 1
  56   30   61 1
  57   31   32 1
  58   31   62 1
  59   31   63 1
  60   32   33 1
  61   32   64 1
  62   32   65 1
  63   33   34 1
  64   33   35 1
  65   34   66 1
  66   34   67 1
  67   35   36 1
  68   35   37 1
  69   35   68 1
  70   36   38 1
  71   36   69 1
  72   36   70 1
  73   37   39 1
  74   37   41 1
  75   37   71 1
  76   38   40 1
  77   38   41 1
  78   38   72 1
  79   39   40 1
  80   39   73 1
  81   39   74 1
  82   40   75 1
  83   40   76 1
  84   41   77 1
  85   41   78 1

#	End of record

