#	Name: ASD00461033
#	Creating user name:	WinNT
#	Creation time:	15. 06. 2019 18:36

#	Modifying user name:	WinNT
#	Modification time:	15. 06. 2019 18:36

#	Program:	/corina/corina34_cracker 3.40 0067  02.08.2006

@<TRIPOS>MOLECULE
ASD00461033
  50   52    0    0    0
SMALL
NO_CHARGES


@<TRIPOS>ATOM
   1 C1            -0.0167     1.3778     0.0096 C.ar    
   2 C2             0.0021    -0.0041     0.0020 C.ar    
   3 C3             1.1707     2.0857     0.0021 C.ar    
   4 C4             1.2107    -0.6794    -0.0132 C.ar    
   5 C5             2.3781     1.4125    -0.0136 C.ar    
   6 C6             1.1489     3.5926     0.0104 C.3     
   7 C7             2.3993     0.0307    -0.0208 C.ar    
   8 F8             1.2302    -2.0303    -0.0202 F       
   9 N9             2.2112     4.0928     0.8933 N.3     
  10 C10            1.8868     5.4327     1.4004 C.3     
  11 C11            2.9968     5.9117     2.3001 C.ar    
  12 C12            4.0581     6.6222     1.7674 C.ar    
  13 C13            2.9483     5.6451     3.6533 C.ar    
  14 C14            5.0804     7.0659     2.5844 C.ar    
  15 C15            3.9710     6.0922     4.4869 C.ar    
  16 C16            5.0473     6.8002     3.9441 C.ar    
  17 C17            3.9238     5.8084     5.9420 C.ar    
  18 O18            6.0492     7.2402     4.7491 O.3     
  19 C19            2.7709     6.0901     6.6726 C.ar    
  20 C20            5.0302     5.2536     6.5826 C.ar    
  21 C21            2.7325     5.8235     8.0261 C.ar    
  22 C22            4.9805     4.9912     7.9366 C.ar    
  23 C23            3.8354     5.2777     8.6578 C.ar    
  24 C24            3.7873     4.9889    10.1360 C.3     
  25 H25            2.3827     3.4506     1.6524 H       
  26 F26            3.3168     3.6875    10.3418 F       
  27 F27            5.0716     5.1114    10.6772 F       
  28 F28            2.9289     5.8995    10.7614 F       
  29 H29            1.7755     6.1212     0.5626 H       
  30 H30            0.9544     5.3922     1.9636 H       
  31 C31            7.1162     7.9566     4.1244 C.3     
  32 C32            1.3784     4.1138    -1.4096 C.3     
  33 H33           -0.9593     1.9048     0.0170 H       
  34 H34           -0.9257    -0.5570     0.0083 H       
  35 H35            3.3050     1.9666    -0.0202 H       
  36 H36            0.1815     3.9399     0.3731 H       
  37 H37            3.3426    -0.4950    -0.0323 H       
  38 H38            4.0878     6.8305     0.7081 H       
  39 H39            2.1183     5.0906     4.0657 H       
  40 H40            5.9061     7.6199     2.1629 H       
  41 H41            1.9093     6.5166     6.1805 H       
  42 H42            5.9246     5.0291     6.0204 H       
  43 H43            1.8397     6.0418     8.5933 H       
  44 H44            5.8372     4.5609     8.4340 H       
  45 H45            7.5959     7.3191     3.3816 H       
  46 H46            6.7195     8.8472     3.6370 H       
  47 H47            7.8471     8.2498     4.8779 H       
  48 H48            2.3458     3.7664    -1.7723 H       
  49 H49            0.5902     3.7427    -2.0647 H       
  50 H50            1.3627     5.2037    -1.4036 H       
@<TRIPOS>BOND
   1    1    2 ar
   2    1    3 ar
   3    1   33 1
   4    2    4 ar
   5    2   34 1
   6    3    6 1
   7    3    5 ar
   8    4    7 ar
   9    4    8 1
  10    5    7 ar
  11    5   35 1
  12    6    9 1
  13    6   32 1
  14    6   36 1
  15    7   37 1
  16    9   10 1
  17    9   25 1
  18   10   29 1
  19   10   30 1
  20   10   11 1
  21   11   12 ar
  22   11   13 ar
  23   12   14 ar
  24   12   38 1
  25   13   15 ar
  26   13   39 1
  27   14   16 ar
  28   14   40 1
  29   15   17 1
  30   15   16 ar
  31   16   18 1
  32   17   19 ar
  33   17   20 ar
  34   18   31 1
  35   19   21 ar
  36   19   41 1
  37   20   22 ar
  38   20   42 1
  39   21   23 ar
  40   21   43 1
  41   22   23 ar
  42   22   44 1
  43   23   24 1
  44   24   26 1
  45   24   27 1
  46   24   28 1
  47   31   45 1
  48   31   46 1
  49   31   47 1
  50   32   48 1
  51   32   49 1
  52   32   50 1

#	End of record

