#	Name: ASD01870721
#	Creating user name:	WinNT
#	Creation time:	15. 06. 2019 19:39

#	Modifying user name:	WinNT
#	Modification time:	15. 06. 2019 19:39

#	Program:	/corina/corina34_cracker 3.40 0067  02.08.2006

@<TRIPOS>MOLECULE
ASD01870721
  44   47    0    0    0
SMALL
NO_CHARGES


@<TRIPOS>ATOM
   1 C1            -0.0909     1.1872    -0.2227 C.ar    
   2 C2            -0.0719    -0.1956    -0.2663 C.ar    
   3 C3             1.1324    -0.8793    -0.2871 C.ar    
   4 C4             2.3286    -0.1892    -0.2642 C.ar    
   5 C5             1.1072     1.9033    -0.1995 C.ar    
   6 C6             1.3584     3.3551    -0.1544 C.2     
   7 C7             2.3317     1.2073    -0.2197 C.ar    
   8 C8             3.4511     2.1646    -0.1884 C.2     
   9 C9             2.8557     3.5518    -0.1479 C.3     
  10 C10            3.2824     4.3388    -1.3602 C.ar    
  11 C11            3.9299     5.5502    -1.2051 C.ar    
  12 C12            4.3212     6.2721    -2.3171 C.ar    
  13 C13            4.0655     5.7824    -3.5842 C.ar    
  14 C14            3.4189     4.5705    -3.7393 C.ar    
  15 C15            3.0314     3.8465    -2.6273 C.ar    
  16 O16            0.5187     4.2291    -0.1279 O.2     
  17 O17            4.6319     1.8895    -0.1952 O.2     
  18 C18            4.4912     6.5698    -4.7965 C.3     
  19 C19            5.8866     6.1633    -5.1950 C.2     
  20 C20            6.5343     6.7944    -6.3609 C.ar    
  21 O21            6.4769     5.3179    -4.5577 O.2     
  22 N22            5.8419     7.6313    -7.1271 N.ar    
  23 C23            7.8703     6.5125    -6.6472 C.ar    
  24 C24            8.4644     7.1137    -7.7457 C.ar    
  25 C25            7.7036     7.9754    -8.5200 C.ar    
  26 C26            6.3818     8.2141    -8.1739 C.ar    
  27 C27            8.6563     5.5684    -5.7744 C.3     
  28 Cl28          -1.5662    -1.0788    -0.2944 Cl      
  29 H29           -1.0340     1.7134    -0.2112 H       
  30 H30            1.1362    -1.9588    -0.3212 H       
  31 H31            3.2632    -0.7300    -0.2804 H       
  32 H32            3.1638     4.0656     0.7627 H       
  33 H33            4.1297     5.9329    -0.2151 H       
  34 H34            4.8264     7.2190    -2.1959 H       
  35 H35            3.2188     4.1880    -4.7293 H       
  36 H36            2.5295     2.8979    -2.7484 H       
  37 H37            3.8053     6.3690    -5.6195 H       
  38 H38            4.4759     7.6342    -4.5622 H       
  39 H39            9.4969     6.9155    -7.9926 H       
  40 H40            8.1371     8.4597    -9.3825 H       
  41 H41            5.7880     8.8884    -8.7731 H       
  42 H42            8.4573     4.5410    -6.0792 H       
  43 H43            9.7208     5.7785    -5.8784 H       
  44 H44            8.3594     5.7027    -4.7342 H       
@<TRIPOS>BOND
   1    1    2 ar
   2    1    5 ar
   3    1   29 1
   4    2    3 ar
   5    2   28 1
   6    3    4 ar
   7    3   30 1
   8    4    7 ar
   9    4   31 1
  10    5    7 ar
  11    5    6 1
  12    6    9 1
  13    6   16 2
  14    7    8 1
  15    8    9 1
  16    8   17 2
  17    9   10 1
  18    9   32 1
  19   10   11 ar
  20   10   15 ar
  21   11   12 ar
  22   11   33 1
  23   12   13 ar
  24   12   34 1
  25   13   14 ar
  26   13   18 1
  27   14   15 ar
  28   14   35 1
  29   15   36 1
  30   18   19 1
  31   18   37 1
  32   18   38 1
  33   19   20 1
  34   19   21 2
  35   20   23 ar
  36   20   22 ar
  37   22   26 ar
  38   23   24 ar
  39   23   27 1
  40   24   25 ar
  41   24   39 1
  42   25   26 ar
  43   25   40 1
  44   26   41 1
  45   27   42 1
  46   27   43 1
  47   27   44 1

#	End of record

