#	Name: ASD01120273
#	Creating user name:	WinNT
#	Creation time:	15. 06. 2019 18:59

#	Modifying user name:	WinNT
#	Modification time:	15. 06. 2019 18:59

#	Program:	/corina/corina34_cracker 3.40 0067  02.08.2006

@<TRIPOS>MOLECULE
ASD01120273
  27   28    0    0    0
SMALL
NO_CHARGES


@<TRIPOS>ATOM
   1 C1            -0.0187     1.5258     0.0104 C.3     
   2 C2             0.0021    -0.0041     0.0020 C.3     
   3 C3            -1.4117    -0.5257     0.0127 C.2     
   4 C4            -2.1742    -0.7978    -1.0795 C.2     
   5 N5            -3.4101    -1.2571    -0.6655 N.pl3   
   6 C6            -3.4368    -1.2786     0.7087 C.ar    
   7 C7            -2.1820    -0.8261     1.1617 C.ar    
   8 C8            -1.9289    -0.7465     2.5375 C.ar    
   9 C9            -2.8977    -1.1071     3.4278 C.ar    
  10 C10           -4.1360    -1.5542     2.9835 C.ar    
  11 C11           -4.4076    -1.6452     1.6370 C.ar    
  12 N12           -5.7313    -2.1225     1.1774 N.pl3   
  13 O13           -6.5820    -2.4354     1.9910 O.2     
  14 O14           -5.9697    -2.2024    -0.0144 O.2     
  15 C15           -1.7519    -0.6302    -2.4763 C.2     
  16 O16           -0.6369    -0.2168    -2.7288 O.2     
  17 O17           -2.6010    -0.9350    -3.4786 O.3     
  18 H18            1.0039     1.9031     0.0027 H       
  19 H19           -0.5459     1.8868    -0.8726 H       
  20 H20           -0.5289     1.8773     0.9072 H       
  21 H21            0.5123    -0.3556    -0.8948 H       
  22 H22            0.5293    -0.3651     0.8851 H       
  23 H23           -4.1390    -1.5208    -1.2488 H       
  24 H24           -0.9691    -0.4009     2.8923 H       
  25 H25           -2.7002    -1.0449     4.4877 H       
  26 H26           -4.8918    -1.8361     3.7016 H       
  27 H27           -2.2782    -0.8083    -4.3813 H       
@<TRIPOS>BOND
   1    1    2 1
   2    1   18 1
   3    1   19 1
   4    1   20 1
   5    2    3 1
   6    2   21 1
   7    2   22 1
   8    3    4 2
   9    3    7 1
  10    4    5 1
  11    4   15 1
  12    5    6 1
  13    5   23 1
  14    6    7 ar
  15    6   11 ar
  16    7    8 ar
  17    8    9 ar
  18    8   24 1
  19    9   10 ar
  20    9   25 1
  21   10   11 ar
  22   10   26 1
  23   11   12 1
  24   12   13 2
  25   12   14 2
  26   15   16 2
  27   15   17 1
  28   17   27 1

#	End of record

