#	Name: ASD05720067
#	Creating user name:	WinNT
#	Creation time:	15. 06. 2019 21:01

#	Modifying user name:	WinNT
#	Modification time:	15. 06. 2019 21:01

#	Program:	/corina/corina34_cracker 3.40 0067  02.08.2006

@<TRIPOS>MOLECULE
ASD05720067
  53   58    0    0    0
SMALL
NO_CHARGES


@<TRIPOS>ATOM
   1 O1             1.3737     1.7017    -0.4282 O.3     
   2 C2             1.8897     0.4810    -0.6098 C.2     
   3 N3             1.2164    -0.4913     0.0204 N.am    
   4 C4             0.0810     0.1056     0.7403 C.3     
   5 C5             0.1974     1.6097     0.4265 C.3     
   6 O6             2.8782     0.2727    -1.2847 O.2     
   7 C7            -0.8194     0.2875     4.4783 C.3     
   8 C8            -0.9079     0.6033     2.9829 C.3     
   9 C9             0.2089    -0.1411     2.2448 C.3     
  10 C10            0.0836    -1.6407     2.5307 C.3     
  11 C11            0.1339    -1.8698     4.0435 C.3     
  12 O12           -0.9117    -1.1254     4.6717 O.3     
  13 C13            3.1185    -3.5147    -0.1907 C.2     
  14 N14            2.7919    -2.2189    -0.1662 N.2     
  15 C15            1.5377    -1.8421    -0.0030 C.2     
  16 C16            0.5240    -2.8101     0.1479 C.2     
  17 C17            0.8509    -4.1221     0.1237 C.2     
  18 N18            2.1590    -4.4816    -0.0470 N.pl3   
  19 N19            2.7907    -5.7285    -0.1137 N.2     
  20 C20            4.0773    -5.5529    -0.2898 C.2     
  21 C21            4.3417    -4.1792    -0.3511 C.2     
  22 C22            5.6658    -3.5473    -0.5470 C.ar    
  23 C23            6.7178    -3.8482     0.3197 C.ar    
  24 C24            7.9512    -3.2588     0.1363 C.ar    
  25 C25            8.1461    -2.3614    -0.9166 C.ar    
  26 C26            7.0941    -2.0620    -1.7814 C.ar    
  27 C27            5.8640    -2.6548    -1.6019 C.ar    
  28 N28           11.1271    -0.5273    -1.8792 N.pl3   
  29 N29            9.7779    -0.8700    -2.0642 N.2     
  30 C30            9.4717    -1.7269    -1.1141 C.2     
  31 N31           10.5566    -1.9313    -0.3544 N.2     
  32 C32           11.5533    -1.2165    -0.8056 C.2     
  33 F33            8.9701    -3.5488     0.9747 F       
  34 H34           -0.8620    -0.2920     0.3649 H       
  35 H35            0.3453     2.1809     1.3430 H       
  36 H36           -0.6885     1.9591    -0.1038 H       
  37 H37            0.1324     0.6466     4.8699 H       
  38 H38           -1.6377     0.7805     5.0030 H       
  39 H39           -1.8759     0.2809     2.5993 H       
  40 H40           -0.7935     1.6764     2.8298 H       
  41 H41            1.1778     0.2180     2.5920 H       
  42 H42           -0.8643    -2.0084     2.1379 H       
  43 H43            0.9072    -2.1724     2.0542 H       
  44 H44            0.0023    -2.9310     4.2551 H       
  45 H45            1.0981    -1.5389     4.4294 H       
  46 H46           -0.5038    -2.5067     0.2821 H       
  47 H47            0.0874    -4.8774     0.2381 H       
  48 H48            4.8127    -6.3390    -0.3769 H       
  49 H49            6.5660    -4.5418     1.1335 H       
  50 H50            7.2452    -1.3682    -2.5952 H       
  51 H51            5.0511    -2.4256    -2.2750 H       
  52 H52           11.6503     0.0833    -2.4218 H       
  53 H53           12.5488    -1.1845    -0.3880 H       
@<TRIPOS>BOND
   1    1    2 1
   2    1    5 1
   3    2    3 am
   4    2    6 2
   5    3    4 1
   6    3   15 1
   7    4    5 1
   8    4    9 1
   9    4   34 1
  10    5   35 1
  11    5   36 1
  12    7    8 1
  13    7   12 1
  14    7   37 1
  15    7   38 1
  16    8    9 1
  17    8   39 1
  18    8   40 1
  19    9   10 1
  20    9   41 1
  21   10   11 1
  22   10   42 1
  23   10   43 1
  24   11   12 1
  25   11   44 1
  26   11   45 1
  27   13   14 1
  28   13   18 1
  29   13   21 2
  30   14   15 2
  31   15   16 1
  32   16   17 2
  33   16   46 1
  34   17   18 1
  35   17   47 1
  36   18   19 1
  37   19   20 2
  38   20   21 1
  39   20   48 1
  40   21   22 1
  41   22   23 ar
  42   22   27 ar
  43   23   24 ar
  44   23   49 1
  45   24   25 ar
  46   24   33 1
  47   25   26 ar
  48   25   30 1
  49   26   27 ar
  50   26   50 1
  51   27   51 1
  52   28   29 1
  53   28   32 1
  54   28   52 1
  55   29   30 2
  56   30   31 1
  57   31   32 2
  58   32   53 1

#	End of record

