#	Name: ASD06170044
#	Creating user name:	WinNT
#	Creation time:	15. 06. 2019 21:05

#	Modifying user name:	WinNT
#	Modification time:	15. 06. 2019 21:05

#	Program:	/corina/corina34_cracker 3.40 0067  02.08.2006

@<TRIPOS>MOLECULE
ASD06170044
  60   64    0    0    0
SMALL
NO_CHARGES


@<TRIPOS>ATOM
   1 N1             0.0280    -1.9558     0.7871 N.pl3   
   2 N2             0.1831    -0.7222     0.1480 N.am    
   3 C3             1.5000    -0.5010    -0.0452 C.2     
   4 C4             2.2054    -1.6681     0.5076 C.2     
   5 C5             1.2335    -2.5170     1.0001 C.2     
   6 C6             3.6566    -1.8875     0.5303 C.2     
   7 O7             4.1107    -2.9042     1.0212 O.2     
   8 N8             4.4862    -0.9629     0.0075 N.am    
   9 O9             2.0051     0.4723    -0.5727 O.2     
  10 C10            1.4805    -3.8469     1.6643 C.3     
  11 C11           -1.2553    -2.5475     1.1735 C.3     
  12 C12            5.8726    -1.1181     0.1280 C.ar    
  13 C13            6.4372    -2.3858     0.0702 C.ar    
  14 C14            7.8059    -2.5380     0.1888 C.ar    
  15 C15            8.6158    -1.4225     0.3656 C.ar    
  16 C16            8.0510    -0.1576     0.4235 C.ar    
  17 C17            6.6837    -0.0044     0.2994 C.ar    
  18 O18            9.9625    -1.5718     0.4822 O.3     
  19 N19           12.1640    -1.8681    -2.9926 N.ar    
  20 C20           10.8533    -1.8245    -3.0433 C.ar    
  21 C21           10.0789    -1.7250    -1.8946 C.ar    
  22 C22           10.6929    -1.6694    -0.6555 C.ar    
  23 C23           12.1049    -1.7172    -0.6128 C.ar    
  24 C24           12.7978    -1.6662     0.6056 C.ar    
  25 C25           14.1578    -1.7147     0.6138 C.ar    
  26 C26           14.8771    -1.8147    -0.5806 C.ar    
  27 C27           14.2260    -1.8663    -1.7924 C.ar    
  28 C28           12.8234    -1.8189    -1.8290 C.ar    
  29 O29           16.2342    -1.8610    -0.5452 O.3     
  30 C30           16.8519    -1.8031     0.7421 C.3     
  31 F31            8.3561    -3.7706     0.1332 F       
  32 C32           -0.8532     0.1383    -0.2286 C.ar    
  33 C33           -2.0222    -0.3769    -0.7735 C.ar    
  34 C34           -3.0444     0.4762    -1.1441 C.ar    
  35 C35           -2.9034     1.8425    -0.9724 C.ar    
  36 C36           -1.7407     2.3574    -0.4301 C.ar    
  37 C37           -0.7177     1.5092    -0.0530 C.ar    
  38 Cl38          -4.5060    -0.1662    -1.8259 Cl      
  39 H39            4.1229    -0.1898    -0.4522 H       
  40 H40            1.4843    -4.6344     0.9107 H       
  41 H41            2.4446    -3.8257     2.1724 H       
  42 H42            0.6914    -4.0426     2.3904 H       
  43 H43           -1.6761    -3.0882     0.3258 H       
  44 H44           -1.1023    -3.2365     2.0042 H       
  45 H45           -1.9424    -1.7580     1.4781 H       
  46 H46            5.8071    -3.2522    -0.0668 H       
  47 H47            8.6808     0.7088     0.5616 H       
  48 H48            6.2451     0.9816     0.3401 H       
  49 H49           10.3633    -1.8671    -4.0048 H       
  50 H50            9.0020    -1.6904    -1.9681 H       
  51 H51           12.2534    -1.5882     1.5350 H       
  52 H52           14.6876    -1.6752     1.5541 H       
  53 H53           14.7910    -1.9429    -2.7096 H       
  54 H54           17.9349    -1.8489     0.6278 H       
  55 H55           16.5777    -0.8703     1.2350 H       
  56 H56           16.5142    -2.6457     1.3454 H       
  57 H57           -2.1321    -1.4429    -0.9079 H       
  58 H58           -3.7032     2.5075    -1.2629 H       
  59 H59           -1.6337     3.4239    -0.2974 H       
  60 H60            0.1886     1.9123     0.3743 H       
@<TRIPOS>BOND
   1    1    2 1
   2    1    5 1
   3    1   11 1
   4    2    3 am
   5    2   32 1
   6    3    4 1
   7    3    9 2
   8    4    5 2
   9    4    6 1
  10    5   10 1
  11    6    7 2
  12    6    8 am
  13    8   12 1
  14    8   39 1
  15   10   40 1
  16   10   41 1
  17   10   42 1
  18   11   43 1
  19   11   44 1
  20   11   45 1
  21   12   13 ar
  22   12   17 ar
  23   13   14 ar
  24   13   46 1
  25   14   15 ar
  26   14   31 1
  27   15   16 ar
  28   15   18 1
  29   16   17 ar
  30   16   47 1
  31   17   48 1
  32   18   22 1
  33   19   20 ar
  34   19   28 ar
  35   20   21 ar
  36   20   49 1
  37   21   22 ar
  38   21   50 1
  39   22   23 ar
  40   23   24 ar
  41   23   28 ar
  42   24   25 ar
  43   24   51 1
  44   25   26 ar
  45   25   52 1
  46   26   27 ar
  47   26   29 1
  48   27   28 ar
  49   27   53 1
  50   29   30 1
  51   30   54 1
  52   30   55 1
  53   30   56 1
  54   32   33 ar
  55   32   37 ar
  56   33   34 ar
  57   33   57 1
  58   34   35 ar
  59   34   38 1
  60   35   36 ar
  61   35   58 1
  62   36   37 ar
  63   36   59 1
  64   37   60 1

#	End of record

