#	Name: ASD02588016
#	Creating user name:	WinNT
#	Creation time:	15. 06. 2019 20:25

#	Modifying user name:	WinNT
#	Modification time:	15. 06. 2019 20:25

#	Program:	/corina/corina34_cracker 3.40 0067  02.08.2006

@<TRIPOS>MOLECULE
ASD02588016
  53   55    0    0    0
SMALL
NO_CHARGES


@<TRIPOS>ATOM
   1 C1            -0.0165     1.3638     0.0095 C.2     
   2 N2             0.0021    -0.0041     0.0020 N.pl3   
   3 N3            -1.2221    -0.6899     0.0096 N.2     
   4 C4            -2.3526    -0.0182     0.0236 C.2     
   5 N5            -2.3797     1.3176     0.0311 N.2     
   6 C6            -1.2680     2.0281     0.0303 C.2     
   7 C7             1.3064     1.8233    -0.0006 C.2     
   8 C8             2.1374     0.6792    -0.0147 C.2     
   9 C9             1.2987    -0.4347    -0.0127 C.2     
  10 N10           -1.3237     3.4080     0.0385 N.pl3   
  11 C11            1.7469     3.2265     0.0020 C.2     
  12 C12            3.6156     0.6665    -0.0289 C.2     
  13 C13           -3.6343    -0.7649     0.0309 C.2     
  14 N14            4.2783     0.6670    -1.2025 N.am    
  15 O15            4.2334     0.6556     1.0179 O.2     
  16 N16            1.9378     3.8750    -1.1640 N.am    
  17 O17            1.9389     3.8017     1.0565 O.2     
  18 O18           -4.6888    -0.1615     0.0439 O.2     
  19 N19           -3.6291    -2.1126     0.0232 N.am    
  20 C20            5.7432     0.6544    -1.2165 C.3     
  21 C21            2.3766     5.2727    -1.1614 C.3     
  22 C22           -4.8949    -2.8501     0.0303 C.3     
  23 C23            1.7353    -1.8347    -0.0239 C.2     
  24 O24            2.9216    -2.1015    -0.0363 O.2     
  25 O25            0.8210    -2.8264    -0.0206 O.3     
  26 C26            1.3253    -4.1880    -0.0322 C.3     
  27 C27            0.1674    -5.1526    -0.0265 C.ar    
  28 C28           -0.3747    -5.5888    -1.2209 C.ar    
  29 C29           -1.4368    -6.4735    -1.2157 C.ar    
  30 C30           -1.9565    -6.9224    -0.0159 C.ar    
  31 C31           -1.4138    -6.4869     1.1785 C.ar    
  32 C32           -0.3489    -5.6055     1.1732 C.ar    
  33 H33           -2.1826     3.8587     0.0449 H       
  34 H34           -0.5039     3.9265     0.0379 H       
  35 H35            3.7853     0.6757    -2.0378 H       
  36 H36            1.7847     3.4163    -2.0048 H       
  37 H37           -2.7872    -2.5943     0.0128 H       
  38 H38            6.1037    -0.2414    -0.7109 H       
  39 H39            6.0967     0.6568    -2.2476 H       
  40 H40            6.1191     1.5385    -0.7015 H       
  41 H41            2.4758     5.6243    -2.1884 H       
  42 H42            1.6412     5.8835    -0.6377 H       
  43 H43            3.3393     5.3504    -0.6562 H       
  44 H44           -5.4755    -2.5839    -0.8529 H       
  45 H45           -4.6916    -3.9209     0.0224 H       
  46 H46           -5.4595    -2.5941     0.9269 H       
  47 H47            1.9251    -4.3456    -0.9286 H       
  48 H48            1.9415    -4.3548     0.8512 H       
  49 H49            0.0314    -5.2381    -2.1582 H       
  50 H50           -1.8608    -6.8138    -2.1488 H       
  51 H51           -2.7868    -7.6131    -0.0118 H       
  52 H52           -1.8200    -6.8373     2.1158 H       
  53 H53            0.0776    -5.2681     2.1063 H       
@<TRIPOS>BOND
   1    1    2 1
   2    1    7 2
   3    1    6 1
   4    2    3 1
   5    2    9 1
   6    3    4 2
   7    4    5 1
   8    4   13 1
   9    5    6 2
  10    6   10 1
  11    7    8 1
  12    7   11 1
  13    8    9 2
  14    8   12 1
  15    9   23 1
  16   10   33 1
  17   10   34 1
  18   11   16 am
  19   11   17 2
  20   12   14 am
  21   12   15 2
  22   13   18 2
  23   13   19 am
  24   14   20 1
  25   14   35 1
  26   16   21 1
  27   16   36 1
  28   19   22 1
  29   19   37 1
  30   20   38 1
  31   20   39 1
  32   20   40 1
  33   21   41 1
  34   21   42 1
  35   21   43 1
  36   22   44 1
  37   22   45 1
  38   22   46 1
  39   23   24 2
  40   23   25 1
  41   25   26 1
  42   26   27 1
  43   26   47 1
  44   26   48 1
  45   27   28 ar
  46   27   32 ar
  47   28   29 ar
  48   28   49 1
  49   29   30 ar
  50   29   50 1
  51   30   31 ar
  52   30   51 1
  53   31   32 ar
  54   31   52 1
  55   32   53 1

#	End of record

