#	Name: ASD01812965
#	Creating user name:	WinNT
#	Creation time:	15. 06. 2019 19:29

#	Modifying user name:	WinNT
#	Modification time:	15. 06. 2019 19:29

#	Program:	/corina/corina34_cracker 3.40 0067  02.08.2006

@<TRIPOS>MOLECULE
ASD01812965
  46   50    0    0    0
SMALL
NO_CHARGES


@<TRIPOS>ATOM
   1 C1             0.0011     1.3702    -0.1143 C.ar    
   2 C2             0.0280    -0.0101    -0.1207 C.ar    
   3 C3             1.2334    -0.6868    -0.0092 C.ar    
   4 C4             2.4091     0.0143     0.1086 C.ar    
   5 C5             2.4007     1.4124     0.1164 C.ar    
   6 C6             1.1800     2.0917     0.0035 C.ar    
   7 C7             3.8523    -0.4031     0.2443 C.3     
   8 N8             4.6314     0.8377     0.3267 N.am    
   9 C9             3.7892     1.8826     0.2525 C.2     
  10 C10            6.0871     0.9233     0.4672 C.3     
  11 C11            6.7223     0.9612    -0.8989 C.ar    
  12 O12            1.1515     3.4481     0.0101 O.3     
  13 O13            4.1262     3.0502     0.2920 O.2     
  14 C14            6.9427     2.1748    -1.5239 C.ar    
  15 C15            7.5246     2.2127    -2.7759 C.ar    
  16 C16            7.8884     1.0307    -3.4069 C.ar    
  17 C17            7.6659    -0.1862    -2.7768 C.ar    
  18 C18            7.0887    -0.2174    -1.5223 C.ar    
  19 N19            8.7597     2.2173    -5.4248 N.2     
  20 N20            8.4788     1.0659    -4.6778 N.pl3   
  21 C21            8.8788    -0.0054    -5.3995 C.2     
  22 C22            9.3953     0.4520    -6.5637 C.2     
  23 C23            9.3087     1.8485    -6.5542 C.2     
  24 C24            1.3381     4.0942    -1.1666 C.ar    
  25 N25            1.2236     5.4116    -1.2039 N.ar    
  26 C26            1.3992     6.0748    -2.3352 C.ar    
  27 C27            1.7068     5.3704    -3.4908 C.ar    
  28 C28            1.8189     3.9892    -3.4138 C.ar    
  29 N29            1.6354     3.3919    -2.2476 N.ar    
  30 F30            1.8924     6.0144    -4.6639 F       
  31 H31           -0.9410     1.8903    -0.2058 H       
  32 H32           -0.8937    -0.5654    -0.2127 H       
  33 H33            1.2479    -1.7667    -0.0145 H       
  34 H34            3.9883    -0.9919     1.1515 H       
  35 H35            4.1588    -0.9809    -0.6276 H       
  36 H36            6.3467     1.8300     1.0138 H       
  37 H37            6.4513     0.0531     1.0132 H       
  38 H38            6.6591     3.0939    -1.0328 H       
  39 H39            7.6962     3.1609    -3.2638 H       
  40 H40            7.9475    -1.1073    -3.2653 H       
  41 H41            6.9197    -1.1635    -1.0296 H       
  42 H42            8.8004    -1.0402    -5.1004 H       
  43 H43            9.8028    -0.1539    -7.3594 H       
  44 H44            9.6381     2.5084    -7.3431 H       
  45 H45            1.3040     7.1503    -2.3592 H       
  46 H46            2.0567     3.4098    -4.2936 H       
@<TRIPOS>BOND
   1    1    2 ar
   2    1    6 ar
   3    1   31 1
   4    2    3 ar
   5    2   32 1
   6    3    4 ar
   7    3   33 1
   8    4    7 1
   9    4    5 ar
  10    5    6 ar
  11    5    9 1
  12    6   12 1
  13    7    8 1
  14    7   34 1
  15    7   35 1
  16    8    9 am
  17    8   10 1
  18    9   13 2
  19   10   11 1
  20   10   36 1
  21   10   37 1
  22   11   14 ar
  23   11   18 ar
  24   12   24 1
  25   14   15 ar
  26   14   38 1
  27   15   16 ar
  28   15   39 1
  29   16   17 ar
  30   16   20 1
  31   17   18 ar
  32   17   40 1
  33   18   41 1
  34   19   20 1
  35   19   23 2
  36   20   21 1
  37   21   22 2
  38   21   42 1
  39   22   23 1
  40   22   43 1
  41   23   44 1
  42   24   25 ar
  43   24   29 ar
  44   25   26 ar
  45   26   27 ar
  46   26   45 1
  47   27   28 ar
  48   27   30 1
  49   28   29 ar
  50   28   46 1

#	End of record

