#	Name: ASD01881490
#	Creating user name:	WinNT
#	Creation time:	15. 06. 2019 19:42

#	Modifying user name:	WinNT
#	Modification time:	15. 06. 2019 19:42

#	Program:	/corina/corina34_cracker 3.40 0067  02.08.2006

@<TRIPOS>MOLECULE
ASD01881490
  41   42    0    0    0
SMALL
NO_CHARGES


@<TRIPOS>ATOM
   1 C1            -0.0187     1.5262     0.0104 C.3     
   2 C2             0.0021    -0.0041     0.0020 C.3     
   3 C3             1.2851    -0.4843     0.7294 C.3     
   4 S4             2.5321     0.6931     0.0673 S.o2    
   5 C5             1.3949     2.1277     0.0002 C.3     
   6 C6             0.4908     2.2745    -1.2243 C.3     
   7 O7             3.5356     0.9254     1.0463 O.2     
   8 O8             2.8987     0.3082    -1.2506 O.2     
   9 C9            -1.2145    -0.5319     0.7178 C.2     
  10 O10           -1.6859    -1.7548     0.4279 O.3     
  11 O11           -1.7657     0.1458     1.5526 O.2     
  12 C12           -0.0902     3.6374    -1.5001 C.2     
  13 O13            0.3155     4.3354    -2.5724 O.3     
  14 O14           -0.9213     4.1017    -0.7560 O.2     
  15 N15            0.0078    -0.4896    -1.3802 N.am    
  16 C16            0.0256    -1.8141    -1.6291 C.2     
  17 O17            0.0369    -2.6039    -0.7089 O.2     
  18 C18            0.0315    -2.3135    -3.0509 C.3     
  19 N19            0.5240    -3.6971    -3.0819 N.3     
  20 C20           -1.3903    -2.2655    -3.6142 C.3     
  21 C21           -1.3659    -2.6535    -5.0940 C.3     
  22 S22           -3.0515    -2.5965    -5.7619 S.3     
  23 C23           -2.8202    -3.0788    -7.4952 C.3     
  24 H24           -0.8035     2.0009     0.5994 H       
  25 H25            1.1846    -0.3823     1.8100 H       
  26 H26            1.5304    -1.5103     0.4554 H       
  27 H27            1.6494     3.0016     0.6000 H       
  28 H28            0.7373     1.6818    -2.1052 H       
  29 H29           -2.4686    -2.0500     0.9131 H       
  30 H30           -0.0858     5.2047    -2.7078 H       
  31 H31           -0.0013     0.1421    -2.1162 H       
  32 H32            0.6831    -1.6823    -3.6551 H       
  33 H33           -0.0638    -4.3026    -2.5287 H       
  34 H34            0.5984    -4.0333    -4.0303 H       
  35 H35           -2.0221    -2.9641    -3.0658 H       
  36 H36           -1.7886    -1.2563    -3.5097 H       
  37 H37           -0.7340    -1.9549    -5.6424 H       
  38 H38           -0.9676    -3.6627    -5.1985 H       
  39 H39           -2.1519    -2.3695    -7.9836 H       
  40 H40           -2.3855    -4.0773    -7.5396 H       
  41 H41           -3.7842    -3.0792    -8.0040 H       
@<TRIPOS>BOND
   1    1    2 1
   2    1    5 1
   3    1    6 1
   4    1   24 1
   5    2    3 1
   6    2    9 1
   7    2   15 1
   8    3    4 1
   9    3   25 1
  10    3   26 1
  11    4    7 2
  12    4    8 2
  13    4    5 1
  14    5    6 1
  15    5   27 1
  16    6   12 1
  17    6   28 1
  18    9   10 1
  19    9   11 2
  20   10   29 1
  21   12   13 1
  22   12   14 2
  23   13   30 1
  24   15   16 am
  25   15   31 1
  26   16   17 2
  27   16   18 1
  28   18   19 1
  29   18   20 1
  30   18   32 1
  31   19   33 1
  32   19   34 1
  33   20   21 1
  34   20   35 1
  35   20   36 1
  36   21   22 1
  37   21   37 1
  38   21   38 1
  39   22   23 1
  40   23   39 1
  41   23   40 1
  42   23   41 1

#	End of record

