#	Name: ASD00170314
#	Creating user name:	WinNT
#	Creation time:	15. 06. 2019 18:31

#	Modifying user name:	WinNT
#	Modification time:	15. 06. 2019 18:31

#	Program:	/corina/corina34_cracker 3.40 0067  02.08.2006

@<TRIPOS>MOLECULE
ASD00170314
  35   37    0    0    0
SMALL
NO_CHARGES


@<TRIPOS>ATOM
   1 S1             0.1577     1.6245     0.6732 S.3     
   2 N2            -0.1177     0.3149    -0.3761 N.pl3   
   3 C3             1.1096    -0.1394    -0.7263 C.2     
   4 N4             2.1486     0.4582    -0.2379 N.2     
   5 C5             1.9248     1.4941     0.5875 C.2     
   6 N6             2.8189     2.2463     1.1974 N.2     
   7 C7            -1.3531    -0.1884    -0.7904 C.ar    
   8 C8             1.2584    -1.2898    -1.6433 C.ar    
   9 C9            -2.2262     0.6164    -1.5121 C.ar    
  10 C10           -3.4467     0.1160    -1.9202 C.ar    
  11 C11           -3.8011    -1.1856    -1.6107 C.ar    
  12 C12           -2.9338    -1.9895    -0.8915 C.ar    
  13 C13           -1.7091    -1.4968    -0.4864 C.ar    
  14 C14            0.2895    -1.5405    -2.6160 C.ar    
  15 C15            0.4346    -2.6153    -3.4688 C.ar    
  16 C16            1.5376    -3.4436    -3.3613 C.ar    
  17 C17            2.5015    -3.2008    -2.3989 C.ar    
  18 C18            2.3713    -2.1261    -1.5437 C.ar    
  19 C19            4.2480     1.9874     1.0048 C.3     
  20 C20            4.8898     3.1772     0.2884 C.3     
  21 Cl21          -5.3367    -1.8110    -2.1249 Cl      
  22 H22           -1.9505     1.6324    -1.7533 H       
  23 H23           -4.1257     0.7411    -2.4811 H       
  24 H24           -3.2133    -3.0045    -0.6509 H       
  25 H25           -1.0327    -2.1246     0.0746 H       
  26 H26           -0.5721    -0.8949    -2.7007 H       
  27 H27           -0.3146    -2.8107    -4.2217 H       
  28 H28            1.6465    -4.2836    -4.0313 H       
  29 H29            3.3597    -3.8515    -2.3197 H       
  30 H30            3.1245    -1.9374    -0.7930 H       
  31 H31            4.7256     1.8463     1.9744 H       
  32 H32            4.3763     1.0882     0.4023 H       
  33 H33            4.4123     3.3183    -0.6812 H       
  34 H34            4.7615     4.0764     0.8909 H       
  35 H35            5.9531     2.9846     0.1451 H       
@<TRIPOS>BOND
   1    1    2 1
   2    1    5 1
   3    2    3 1
   4    2    7 1
   5    3    4 2
   6    3    8 1
   7    4    5 1
   8    5    6 2
   9    6   19 1
  10    7    9 ar
  11    7   13 ar
  12    8   14 ar
  13    8   18 ar
  14    9   10 ar
  15    9   22 1
  16   10   11 ar
  17   10   23 1
  18   11   12 ar
  19   11   21 1
  20   12   13 ar
  21   12   24 1
  22   13   25 1
  23   14   15 ar
  24   14   26 1
  25   15   16 ar
  26   15   27 1
  27   16   17 ar
  28   16   28 1
  29   17   18 ar
  30   17   29 1
  31   18   30 1
  32   19   20 1
  33   19   31 1
  34   19   32 1
  35   20   33 1
  36   20   34 1
  37   20   35 1

#	End of record

