#	Name: ASD01820072
#	Creating user name:	WinNT
#	Creation time:	15. 06. 2019 19:36

#	Modifying user name:	WinNT
#	Modification time:	15. 06. 2019 19:36

#	Program:	/corina/corina34_cracker 3.40 0067  02.08.2006

@<TRIPOS>MOLECULE
ASD01820072
  80   85    0    0    0
SMALL
NO_CHARGES


@<TRIPOS>ATOM
   1 C1            -0.0167     1.3781     0.0096 C.ar    
   2 C2             0.0021    -0.0041     0.0020 C.ar    
   3 C3             1.2063    -0.6904    -0.0131 C.ar    
   4 C4             2.3989     0.0151    -0.0207 C.ar    
   5 C5             2.3798     1.4244    -0.0130 C.ar    
   6 C6             1.1684     2.0970     0.0022 C.ar    
   7 C7             3.8259    -0.3700    -0.0364 C.2     
   8 N8             4.5720     0.7494    -0.0375 N.am    
   9 C9             3.7959     1.8481    -0.0242 C.2     
  10 O10            4.1923     2.9960    -0.0224 O.2     
  11 O11            4.2533    -1.5068    -0.0462 O.2     
  12 N12           10.0228     0.8400    -2.9758 N.ar    
  13 C13           10.6804    -0.3029    -2.9886 C.ar    
  14 C14           12.0623    -0.3234    -3.0019 C.ar    
  15 C15           12.7558     0.8772    -3.0020 C.ar    
  16 C16           12.0300     2.0585    -2.9887 C.ar    
  17 C17           10.6492     2.0005    -2.9809 C.ar    
  18 C18           14.2625     0.8977    -3.0157 C.3     
  19 C19           14.7592     0.9121    -4.4628 C.3     
  20 C20           16.2660     0.9326    -4.4765 C.ar    
  21 C21           16.9918    -0.2487    -4.4893 C.ar    
  22 C22           18.3726    -0.1906    -4.5016 C.ar    
  23 N23           18.9990     0.9698    -4.5009 N.ar    
  24 C24           18.3414     2.1128    -4.4885 C.ar    
  25 C25           16.9595     2.1333    -4.4824 C.ar    
  26 C26           20.4638     0.9897    -4.5137 C.3     
  27 N27           24.4528     1.0600    -7.4337 N.am    
  28 C28           25.2289    -0.0387    -7.4465 C.2     
  29 C29           26.6449     0.3850    -7.4631 C.ar    
  30 C30           26.6258     1.7943    -7.4590 C.ar    
  31 C31           25.1988     2.1794    -7.4400 C.2     
  32 C32           27.8562    -0.2876    -7.4802 C.ar    
  33 C33           29.0413     0.4312    -7.4931 C.ar    
  34 C34           29.0225     1.8134    -7.4886 C.ar    
  35 C35           27.8184     2.4997    -7.4727 C.ar    
  36 O36           24.7714     3.3161    -7.4322 O.2     
  37 O37           24.8325    -1.1867    -7.4443 O.2     
  38 C38           20.9610     1.0045    -5.9606 C.3     
  39 C39           22.4908     1.0253    -5.9740 C.3     
  40 C40            8.5580     0.8201    -2.9615 C.3     
  41 C41            8.0623     0.8051    -1.5141 C.3     
  42 C42            6.5325     0.7843    -1.4992 C.3     
  43 C43            6.0368     0.7693    -0.0518 C.3     
  44 C44           22.9880     1.0400    -7.4209 C.3     
  45 H45           -0.9613     1.9015     0.0169 H       
  46 H46           -0.9280    -0.5530     0.0083 H       
  47 H47            1.2149    -1.7703    -0.0187 H       
  48 H48            1.1477     3.1767     0.0078 H       
  49 H49           10.1328    -1.2338    -2.9884 H       
  50 H50           12.5952    -1.2627    -3.0116 H       
  51 H51           12.5372     3.0120    -2.9881 H       
  52 H52           10.0765     2.9161    -2.9709 H       
  53 H53           14.6185     1.7899    -2.5005 H       
  54 H54           14.6426     0.0101    -2.5100 H       
  55 H55           14.4033     0.0200    -4.9780 H       
  56 H56           14.3792     1.7998    -4.9686 H       
  57 H57           16.4846    -1.2021    -4.4893 H       
  58 H58           18.9452    -1.1063    -4.5117 H       
  59 H59           18.8890     3.0437    -4.4879 H       
  60 H60           16.4266     3.0726    -4.4726 H       
  61 H61           20.8195     1.8818    -3.9982 H       
  62 H62           20.8437     0.1020    -4.0080 H       
  63 H63           27.8769    -1.3674    -7.4831 H       
  64 H64           29.9859    -0.0922    -7.5064 H       
  65 H65           29.9526     2.3623    -7.4981 H       
  66 H66           27.8097     3.5797    -7.4694 H       
  67 H67           20.6052     0.1124    -6.4761 H       
  68 H68           20.5811     1.8922    -6.4663 H       
  69 H69           22.8465     1.9173    -5.4584 H       
  70 H70           22.8707     0.1376    -5.4683 H       
  71 H71            8.1777     1.7079    -3.4667 H       
  72 H72            8.2018    -0.0719    -3.4768 H       
  73 H73            8.4427    -0.0827    -1.0089 H       
  74 H74            8.4186     1.6971    -0.9988 H       
  75 H75            6.1521     1.6721    -2.0043 H       
  76 H76            6.1762    -0.1077    -2.0145 H       
  77 H77            6.3931     1.6613     0.4635 H       
  78 H78            6.4172    -0.1185     0.4534 H       
  79 H79           22.6081     1.9278    -7.9266 H       
  80 H80           22.6322     0.1480    -7.9364 H       
@<TRIPOS>BOND
   1    1    2 ar
   2    1    6 ar
   3    1   45 1
   4    2    3 ar
   5    2   46 1
   6    3    4 ar
   7    3   47 1
   8    4    5 ar
   9    4    7 1
  10    5    6 ar
  11    5    9 1
  12    6   48 1
  13    7    8 am
  14    7   11 2
  15    8    9 am
  16    8   43 1
  17    9   10 2
  18   12   13 ar
  19   12   40 1
  20   12   17 ar
  21   13   14 ar
  22   13   49 1
  23   14   15 ar
  24   14   50 1
  25   15   16 ar
  26   15   18 1
  27   16   17 ar
  28   16   51 1
  29   17   52 1
  30   18   19 1
  31   18   53 1
  32   18   54 1
  33   19   20 1
  34   19   55 1
  35   19   56 1
  36   20   21 ar
  37   20   25 ar
  38   21   22 ar
  39   21   57 1
  40   22   23 ar
  41   22   58 1
  42   23   24 ar
  43   23   26 1
  44   24   25 ar
  45   24   59 1
  46   25   60 1
  47   26   38 1
  48   26   61 1
  49   26   62 1
  50   27   28 am
  51   27   31 am
  52   27   44 1
  53   28   29 1
  54   28   37 2
  55   29   30 ar
  56   29   32 ar
  57   30   31 1
  58   30   35 ar
  59   31   36 2
  60   32   33 ar
  61   32   63 1
  62   33   34 ar
  63   33   64 1
  64   34   35 ar
  65   34   65 1
  66   35   66 1
  67   38   39 1
  68   38   67 1
  69   38   68 1
  70   39   44 1
  71   39   69 1
  72   39   70 1
  73   40   41 1
  74   40   71 1
  75   40   72 1
  76   41   42 1
  77   41   73 1
  78   41   74 1
  79   42   43 1
  80   42   75 1
  81   42   76 1
  82   43   77 1
  83   43   78 1
  84   44   79 1
  85   44   80 1

#	End of record

