#	Name: ASD06660055
#	Creating user name:	WinNT
#	Creation time:	15. 06. 2019 21:07

#	Modifying user name:	WinNT
#	Modification time:	15. 06. 2019 21:07

#	Program:	/corina/corina34_cracker 3.40 0067  02.08.2006

@<TRIPOS>MOLECULE
ASD06660055
  77   81    0    0    0
SMALL
NO_CHARGES


@<TRIPOS>ATOM
   1 C1             0.2761     1.9466     1.0520 C.2     
   2 C2             0.0344     0.5538     0.5296 C.3     
   3 C3            -1.1063     0.5823    -0.4897 C.3     
   4 O4             1.3550     2.4693     0.9019 O.2     
   5 O5            -0.7090     2.6084     1.6792 O.3     
   6 C6             2.2776    -0.3914     0.6377 C.2     
   7 C7             3.5405    -0.8091    -0.0075 C.ar    
   8 C8             3.7770    -2.1581    -0.2777 C.ar    
   9 C9             4.9572    -2.5410    -0.8803 C.ar    
  10 C10            5.9059    -1.5913    -1.2166 C.ar    
  11 C11            5.6777    -0.2528    -0.9516 C.ar    
  12 C12            4.4989     0.1442    -0.3544 C.ar    
  13 O13            2.1639    -0.4513     1.8464 O.2     
  14 N14            1.2523     0.0556    -0.1143 N.am    
  15 C15            4.2496     1.6033    -0.0717 C.3     
  16 C16            2.7455    -3.1938     0.0887 C.3     
  17 C17            1.7282    -3.3243    -1.0467 C.3     
  18 C18           -1.4360    -0.8256    -0.9141 C.ar    
  19 C19           -2.3588    -1.5643    -0.1964 C.ar    
  20 C20           -2.6633    -2.8548    -0.5826 C.ar    
  21 C21           -2.0413    -3.4107    -1.6933 C.ar    
  22 C22           -1.1148    -2.6660    -2.4120 C.ar    
  23 C23           -0.8192    -1.3740    -2.0236 C.ar    
  24 N24           -2.3465    -4.7158    -2.0864 N.3     
  25 C25           -1.5788    -5.0998    -3.2778 C.3     
  26 C26           -2.0428    -6.4746    -3.7641 C.3     
  27 C27           -1.8361    -7.5020    -2.6478 C.3     
  28 C28           -2.6070    -7.0537    -1.4031 C.3     
  29 C29           -2.1266    -5.6621    -0.9852 C.3     
  30 C30           -2.3544    -8.8665    -3.1064 C.3     
  31 N31           -2.0487    -9.8729    -2.0866 N.pl3   
  32 C32           -2.4220   -11.1862    -2.2802 C.2     
  33 N33           -3.0784   -11.6612    -3.3793 N.pl3   
  34 C34           -3.2667   -13.0205    -3.1898 C.ar    
  35 C35           -2.6975   -13.3233    -1.9416 C.ar    
  36 N36           -2.1948   -12.1646    -1.4397 N.2     
  37 C37           -2.7336   -14.6375    -1.4701 C.ar    
  38 C38           -3.3251   -15.6213    -2.2312 C.ar    
  39 C39           -3.8850   -15.3170    -3.4627 C.ar    
  40 C40           -3.8583   -14.0232    -3.9423 C.ar    
  41 H41           -0.2340    -0.1031     1.3570 H       
  42 H42           -1.9859     1.0410    -0.0380 H       
  43 H43           -0.8009     1.1622    -1.3607 H       
  44 H44           -0.5065     3.4991     1.9968 H       
  45 H45            5.1415    -3.5843    -1.0899 H       
  46 H46            6.8286    -1.8964    -1.6876 H       
  47 H47            6.4222     0.4834    -1.2165 H       
  48 H48            1.3209     0.0474    -1.0818 H       
  49 H49            4.6275     1.8509     0.9203 H       
  50 H50            4.7620     2.2107    -0.8177 H       
  51 H51            3.1790     1.8036    -0.1131 H       
  52 H52            3.2358    -4.1539     0.2494 H       
  53 H53            2.2338    -2.8898     1.0018 H       
  54 H54            0.9283    -3.9991    -0.7420 H       
  55 H55            1.3097    -2.3439    -1.2741 H       
  56 H56            2.2220    -3.7230    -1.9329 H       
  57 H57           -2.8417    -1.1316     0.6673 H       
  58 H58           -3.3838    -3.4312    -0.0214 H       
  59 H59           -0.6295    -3.0952    -3.2760 H       
  60 H60           -0.1025    -0.7927    -2.5848 H       
  61 H61           -1.7379    -4.3632    -4.0653 H       
  62 H62           -0.5184    -5.1415    -3.0287 H       
  63 H63           -3.0998    -6.4301    -4.0266 H       
  64 H64           -1.4620    -6.7661    -4.6392 H       
  65 H65           -0.7744    -7.5751    -2.4120 H       
  66 H66           -3.6729    -7.0183    -1.6284 H       
  67 H67           -2.4293    -7.7591    -0.5913 H       
  68 H68           -1.0637    -5.7012    -0.7468 H       
  69 H69           -2.6836    -5.3340    -0.1076 H       
  70 H70           -3.4331    -8.8147    -3.2538 H       
  71 H71           -1.8723    -9.1418    -4.0444 H       
  72 H72           -1.5837    -9.6155    -1.2752 H       
  73 H73           -3.3608   -11.1431    -4.1492 H       
  74 H74           -2.2987   -14.8816    -0.5121 H       
  75 H75           -3.3528   -16.6373    -1.8663 H       
  76 H76           -4.3456   -16.0974    -4.0502 H       
  77 H77           -4.2963   -13.7926    -4.9021 H       
@<TRIPOS>BOND
   1    1    2 1
   2    1    4 2
   3    1    5 1
   4    2    3 1
   5    2   14 1
   6    2   41 1
   7    3   18 1
   8    3   42 1
   9    3   43 1
  10    5   44 1
  11    6    7 1
  12    6   13 2
  13    6   14 am
  14    7    8 ar
  15    7   12 ar
  16    8    9 ar
  17    8   16 1
  18    9   10 ar
  19    9   45 1
  20   10   11 ar
  21   10   46 1
  22   11   12 ar
  23   11   47 1
  24   12   15 1
  25   14   48 1
  26   15   49 1
  27   15   50 1
  28   15   51 1
  29   16   17 1
  30   16   52 1
  31   16   53 1
  32   17   54 1
  33   17   55 1
  34   17   56 1
  35   18   19 ar
  36   18   23 ar
  37   19   20 ar
  38   19   57 1
  39   20   21 ar
  40   20   58 1
  41   21   22 ar
  42   21   24 1
  43   22   23 ar
  44   22   59 1
  45   23   60 1
  46   24   25 1
  47   24   29 1
  48   25   26 1
  49   25   61 1
  50   25   62 1
  51   26   27 1
  52   26   63 1
  53   26   64 1
  54   27   28 1
  55   27   30 1
  56   27   65 1
  57   28   29 1
  58   28   66 1
  59   28   67 1
  60   29   68 1
  61   29   69 1
  62   30   31 1
  63   30   70 1
  64   30   71 1
  65   31   32 1
  66   31   72 1
  67   32   33 1
  68   32   36 2
  69   33   34 1
  70   33   73 1
  71   34   35 ar
  72   34   40 ar
  73   35   36 1
  74   35   37 ar
  75   37   38 ar
  76   37   74 1
  77   38   39 ar
  78   38   75 1
  79   39   40 ar
  80   39   76 1
  81   40   77 1

#	End of record

