#	Name: ASD01028713
#	Creating user name:	WinNT
#	Creation time:	15. 06. 2019 18:58

#	Modifying user name:	WinNT
#	Modification time:	15. 06. 2019 18:58

#	Program:	/corina/corina34_cracker 3.40 0067  02.08.2006

@<TRIPOS>MOLECULE
ASD01028713
  39   42    0    0    0
SMALL
NO_CHARGES


@<TRIPOS>ATOM
   1 C1            -0.0169     1.3980     0.0097 C.ar    
   2 C2             0.0021    -0.0041     0.0020 C.ar    
   3 C3             1.2281    -0.6671    -0.0132 C.ar    
   4 C4             2.3757     0.0807    -0.0201 C.ar    
   5 C5             2.2922     1.4744    -0.0119 C.ar    
   6 N6             1.1232     2.0865     0.0025 N.ar    
   7 O7            -1.2792    -0.4225     0.0120 O.3     
   8 N8            -2.1366     0.7014     0.0262 N.2     
   9 C9            -1.4305     1.7897     0.0312 C.2     
  10 N10            3.4601     2.2298    -0.0189 N.pl3   
  11 C11            4.7604     1.5670    -0.1454 C.3     
  12 C12            3.3898     3.6883     0.1002 C.3     
  13 C13           -1.9648     3.1988     0.0461 C.3     
  14 N14           -7.5845     3.0712     0.0728 N.ar    
  15 C15           -8.2537     3.0488     1.1997 C.ar    
  16 C16           -7.6096     3.0563     2.4352 C.ar    
  17 C17           -6.2454     3.0872     2.4926 C.ar    
  18 C18           -5.5300     3.1107     1.2803 C.ar    
  19 C19           -4.1266     3.1430     1.2600 C.ar    
  20 C20           -3.4713     3.1646     0.0666 C.ar    
  21 C21           -4.1751     3.1559    -1.1357 C.ar    
  22 C22           -5.5357     3.1252    -1.1528 C.ar    
  23 C23           -6.2481     3.1019     0.0586 C.ar    
  24 F24           -1.4978     3.8626     1.1856 F       
  25 F25           -1.5292     3.8747    -1.0987 F       
  26 H26            1.2722    -1.7461    -0.0191 H       
  27 H27            3.3401    -0.4053    -0.0315 H       
  28 H28            5.0246     1.4834    -1.1996 H       
  29 H29            5.5189     2.1529     0.3738 H       
  30 H30            4.7054     0.5717     0.2954 H       
  31 H31            2.3476     3.9962     0.1839 H       
  32 H32            3.9353     4.0070     0.9884 H       
  33 H33            3.8342     4.1468    -0.7832 H       
  34 H34           -9.3330     3.0242     1.1697 H       
  35 H35           -8.1886     3.0380     3.3467 H       
  36 H36           -5.7298     3.0938     3.4415 H       
  37 H37           -3.5701     3.1504     2.1855 H       
  38 H38           -3.6323     3.1741    -2.0692 H       
  39 H39           -6.0659     3.1193    -2.0937 H       
@<TRIPOS>BOND
   1    1    2 ar
   2    1    6 ar
   3    1    9 1
   4    2    3 ar
   5    2    7 1
   6    3    4 ar
   7    3   26 1
   8    4    5 ar
   9    4   27 1
  10    5    6 ar
  11    5   10 1
  12    7    8 1
  13    8    9 2
  14    9   13 1
  15   10   11 1
  16   10   12 1
  17   11   28 1
  18   11   29 1
  19   11   30 1
  20   12   31 1
  21   12   32 1
  22   12   33 1
  23   13   20 1
  24   13   24 1
  25   13   25 1
  26   14   15 ar
  27   14   23 ar
  28   15   16 ar
  29   15   34 1
  30   16   17 ar
  31   16   35 1
  32   17   18 ar
  33   17   36 1
  34   18   19 ar
  35   18   23 ar
  36   19   20 ar
  37   19   37 1
  38   20   21 ar
  39   21   22 ar
  40   21   38 1
  41   22   23 ar
  42   22   39 1

#	End of record

