#	Name: ASD03540592
#	Creating user name:	WinNT
#	Creation time:	15. 06. 2019 20:43

#	Modifying user name:	WinNT
#	Modification time:	15. 06. 2019 20:43

#	Program:	/corina/corina34_cracker 3.40 0067  02.08.2006

@<TRIPOS>MOLECULE
ASD03540592
  58   62    0    0    0
SMALL
NO_CHARGES


@<TRIPOS>ATOM
   1 N1            -0.0164     1.3608     0.0095 N.pl3   
   2 C2             0.0021    -0.0041     0.0020 C.2     
   3 N3             1.1903    -0.7096    -0.0132 N.am    
   4 C4             2.3778    -0.0689    -0.0205 C.2     
   5 C5             2.3905     1.4059    -0.0126 C.ar    
   6 C6             3.5856     2.1159    -0.0186 C.ar    
   7 C7             3.5564     3.5090    -0.0098 C.ar    
   8 C8             2.3300     4.1837     0.0049 C.ar    
   9 C9             1.1468     3.4801     0.0112 C.ar    
  10 C10            1.1624     2.0911     0.0022 C.ar    
  11 N11           -2.0330     0.6196     0.0248 N.2     
  12 N12           -1.2514    -0.4005     0.0119 N.2     
  13 C13           -1.3340     1.7207     0.0296 C.2     
  14 C14            4.8199     4.2740    -0.0155 C.2     
  15 O15            5.8851     3.6882    -0.0278 O.2     
  16 N16            4.7919     5.6214    -0.0070 N.am    
  17 C17            6.0450     6.3802    -0.0127 C.3     
  18 C18            5.7389     7.8558    -0.0011 C.ar    
  19 C19            5.6085     8.5242     1.2022 C.ar    
  20 C20            5.3279     9.8768     1.2155 C.ar    
  21 C21            5.1769    10.5644     0.0201 C.ar    
  22 C22            5.3082     9.8915    -1.1860 C.ar    
  23 C23            5.5945     8.5400    -1.1939 C.ar    
  24 O24            4.9004    11.8950     0.0305 O.3     
  25 C25            4.7582    12.5380    -1.2378 C.3     
  26 O26            3.4195    -0.6967    -0.0330 O.2     
  27 C27            1.1602    -2.1743    -0.0209 C.3     
  28 C28            1.1360    -2.6763    -1.4660 C.3     
  29 O29            2.3584    -2.3199    -2.1146 O.3     
  30 C30            2.4997    -2.6942    -3.4136 C.ar    
  31 C31            3.6612    -2.3808    -4.1043 C.ar    
  32 C32            3.8031    -2.7626    -5.4243 C.ar    
  33 C33            2.7876    -3.4571    -6.0576 C.ar    
  34 C34            1.6283    -3.7706    -5.3703 C.ar    
  35 C35            1.4849    -3.3952    -4.0486 C.ar    
  36 Cl36           2.9680    -3.9352    -7.7166 Cl      
  37 H37            4.5298     1.5916    -0.0295 H       
  38 H38            2.3119     5.2635     0.0116 H       
  39 H39            0.2051     4.0088     0.0233 H       
  40 H40           -1.7237     2.7278     0.0403 H       
  41 H41            3.9419     6.0888     0.0028 H       
  42 H42            6.6292     6.1234     0.8710 H       
  43 H43            6.6146     6.1343    -0.9089 H       
  44 H44            5.7258     7.9883     2.1325 H       
  45 H45            5.2259    10.3984     2.1556 H       
  46 H46            5.1911    10.4246    -2.1179 H       
  47 H47            5.7015     8.0166    -2.1325 H       
  48 H48            5.6847    12.4358    -1.8028 H       
  49 H49            3.9420    12.0735    -1.7911 H       
  50 H50            4.5395    13.5950    -1.0867 H       
  51 H51            2.0474    -2.5586     0.4824 H       
  52 H52            0.2679    -2.5221     0.4996 H       
  53 H53            1.0241    -3.7605    -1.4721 H       
  54 H54            0.2982    -2.2215    -1.9946 H       
  55 H55            4.4538    -1.8385    -3.6105 H       
  56 H56            4.7070    -2.5185    -5.9625 H       
  57 H57            0.8368    -4.3127    -5.8663 H       
  58 H58            0.5816    -3.6436    -3.5113 H       
@<TRIPOS>BOND
   1    1    2 1
   2    1   10 1
   3    1   13 1
   4    2    3 1
   5    2   12 2
   6    3    4 am
   7    3   27 1
   8    4    5 1
   9    4   26 2
  10    5    6 ar
  11    5   10 ar
  12    6    7 ar
  13    6   37 1
  14    7    8 ar
  15    7   14 1
  16    8    9 ar
  17    8   38 1
  18    9   10 ar
  19    9   39 1
  20   11   12 1
  21   11   13 2
  22   13   40 1
  23   14   15 2
  24   14   16 am
  25   16   17 1
  26   16   41 1
  27   17   18 1
  28   17   42 1
  29   17   43 1
  30   18   19 ar
  31   18   23 ar
  32   19   20 ar
  33   19   44 1
  34   20   21 ar
  35   20   45 1
  36   21   22 ar
  37   21   24 1
  38   22   23 ar
  39   22   46 1
  40   23   47 1
  41   24   25 1
  42   25   48 1
  43   25   49 1
  44   25   50 1
  45   27   28 1
  46   27   51 1
  47   27   52 1
  48   28   29 1
  49   28   53 1
  50   28   54 1
  51   29   30 1
  52   30   31 ar
  53   30   35 ar
  54   31   32 ar
  55   31   55 1
  56   32   33 ar
  57   32   56 1
  58   33   34 ar
  59   33   36 1
  60   34   35 ar
  61   34   57 1
  62   35   58 1

#	End of record

