#	Name: ASD01917467
#	Creating user name:	WinNT
#	Creation time:	15. 06. 2019 20:09

#	Modifying user name:	WinNT
#	Modification time:	15. 06. 2019 20:09

#	Program:	/corina/corina34_cracker 3.40 0067  02.08.2006

@<TRIPOS>MOLECULE
ASD01917467
  52   55    0    0    0
SMALL
NO_CHARGES


@<TRIPOS>ATOM
   1 C1            -0.0188     1.5345     0.0105 C.3     
   2 C2             0.0021    -0.0041     0.0020 C.3     
   3 C3             1.0346    -0.4943     1.0190 C.3     
   4 C4             0.7319     0.0808     2.4040 C.3     
   5 C5             0.6797     1.6157     2.3091 C.3     
   6 C6             1.8973     2.0694     1.4711 C.3     
   7 C7             1.4500     2.0174    -0.0010 C.3     
   8 C8            -0.5348     1.9653     1.4089 C.3     
   9 C9            -2.9051     2.3458    -2.3306 C.ar    
  10 C10           -4.2567     2.0273    -2.4574 C.ar    
  11 N11           -2.3325     3.1612    -3.2116 N.ar    
  12 N12           -4.9621     2.5364    -3.4513 N.ar    
  13 C13           -4.3883     3.3460    -4.3238 C.ar    
  14 C14           -3.0438     3.6648    -4.2004 C.ar    
  15 C15           -2.1107     1.7825    -1.2142 C.2     
  16 O16           -2.6368     1.0416    -0.4073 O.2     
  17 N17           -0.8044     2.0916    -1.0935 N.am    
  18 C18           -2.3954     4.5891    -5.1985 C.3     
  19 C19            1.5715     2.7041     5.8431 C.ar    
  20 C20            2.5978     2.4943     6.7635 C.ar    
  21 N21            0.5495     3.4937     6.1611 N.ar    
  22 N22            2.5506     3.0803     7.9463 N.ar    
  23 C23            1.5329     3.8638     8.2570 C.ar    
  24 C24            0.5103     4.0745     7.3435 C.ar    
  25 C25            1.6224     2.0542     4.5127 C.2     
  26 O26            2.5594     1.3372     4.2223 O.2     
  27 N27            0.6294     2.2583     3.6246 N.am    
  28 C28           -0.6473     4.9696     7.7038 C.3     
  29 H29           -0.9836    -0.3836     0.2712 H       
  30 H30            0.2722    -0.3597    -0.9923 H       
  31 H31            1.0056    -1.5829     1.0662 H       
  32 H32            2.0288    -0.1759     0.7056 H       
  33 H33           -0.2295    -0.2959     2.7531 H       
  34 H34            1.5160    -0.2150     3.1010 H       
  35 H35            2.1797     3.0869     1.7411 H       
  36 H36            2.7360     1.3921     1.6319 H       
  37 H37            2.0710     1.3148    -0.5566 H       
  38 H38            1.5146     3.0097    -0.4474 H       
  39 H39           -0.7460     3.0343     1.4353 H       
  40 H40           -1.4134     1.3877     1.6963 H       
  41 H41           -4.7258     1.3654    -1.7445 H       
  42 H42           -4.9677     3.7607    -5.1354 H       
  43 H43           -0.3844     2.6829    -1.7375 H       
  44 H44           -1.9935     4.0053    -6.0266 H       
  45 H45           -3.1366     5.2934    -5.5764 H       
  46 H46           -1.5871     5.1372    -4.7144 H       
  47 H47            3.4294     1.8537     6.5099 H       
  48 H48            1.4972     4.3415     9.2249 H       
  49 H49           -0.1186     2.8307     3.8565 H       
  50 H50           -1.4334     4.3765     8.1711 H       
  51 H51           -0.3097     5.7380     8.3993 H       
  52 H52           -1.0360     5.4417     6.8015 H       
@<TRIPOS>BOND
   1    1    2 1
   2    1    7 1
   3    1    8 1
   4    1   17 1
   5    2    3 1
   6    2   29 1
   7    2   30 1
   8    3    4 1
   9    3   31 1
  10    3   32 1
  11    4    5 1
  12    4   33 1
  13    4   34 1
  14    5    6 1
  15    5    8 1
  16    5   27 1
  17    6    7 1
  18    6   35 1
  19    6   36 1
  20    7   37 1
  21    7   38 1
  22    8   39 1
  23    8   40 1
  24    9   10 ar
  25    9   11 ar
  26    9   15 1
  27   10   12 ar
  28   10   41 1
  29   11   14 ar
  30   12   13 ar
  31   13   14 ar
  32   13   42 1
  33   14   18 1
  34   15   16 2
  35   15   17 am
  36   17   43 1
  37   18   44 1
  38   18   45 1
  39   18   46 1
  40   19   20 ar
  41   19   21 ar
  42   19   25 1
  43   20   22 ar
  44   20   47 1
  45   21   24 ar
  46   22   23 ar
  47   23   24 ar
  48   23   48 1
  49   24   28 1
  50   25   26 2
  51   25   27 am
  52   27   49 1
  53   28   50 1
  54   28   51 1
  55   28   52 1

#	End of record

