#	Name: ASD03430756
#	Creating user name:	WinNT
#	Creation time:	15. 06. 2019 20:41

#	Modifying user name:	WinNT
#	Modification time:	15. 06. 2019 20:41

#	Program:	/corina/corina34_cracker 3.40 0067  02.08.2006

@<TRIPOS>MOLECULE
ASD03430756
  29   32    0    0    0
SMALL
NO_CHARGES


@<TRIPOS>ATOM
   1 C1            -0.0167     1.3811     0.0096 C.ar    
   2 C2             0.0021    -0.0041     0.0020 C.ar    
   3 C3             1.2030    -0.6789    -0.0135 C.ar    
   4 C4             2.4076     0.0192    -0.0104 C.ar    
   5 C5             2.3799     1.4104    -0.0078 C.ar    
   6 C6             1.1759     2.0839     0.0020 C.ar    
   7 O7             3.4719    -0.8326     0.0018 O.3     
   8 C8             1.5552    -2.1417    -0.0506 C.3     
   9 C9             3.0417    -2.1369    -0.4333 C.3     
  10 C10            0.4329    -3.8627     0.9979 C.ar    
  11 C11            1.3180    -2.8209     1.2654 C.ar    
  12 C12            0.7258    -2.9012    -1.0459 C.2     
  13 N13            0.1065    -3.8826    -0.3602 N.am    
  14 O14            0.6313    -2.6754    -2.2339 O.2     
  15 C15            1.7796    -2.6055     2.5443 C.ar    
  16 C16            1.3658    -3.4268     3.5784 C.ar    
  17 C17            0.4878    -4.4641     3.3242 C.ar    
  18 C18            0.0222    -4.6845     2.0442 C.ar    
  19 F19           -1.1942     2.0433     0.0188 F       
  20 H20           -0.9263    -0.5559     0.0086 H       
  21 H21            3.3060     1.9659    -0.0131 H       
  22 H22            1.1637     3.1639     0.0038 H       
  23 H23            3.1643    -2.2453    -1.5110 H       
  24 H24            3.5811    -2.9200     0.0994 H       
  25 H25           -0.4956    -4.5277    -0.7630 H       
  26 H26            2.4656    -1.7948     2.7408 H       
  27 H27            1.7283    -3.2582     4.5817 H       
  28 H28            0.1651    -5.1051     4.1313 H       
  29 H29           -0.6633    -5.4969     1.8533 H       
@<TRIPOS>BOND
   1    1    2 ar
   2    1    6 ar
   3    1   19 1
   4    2    3 ar
   5    2   20 1
   6    3    4 ar
   7    3    8 1
   8    4    5 ar
   9    4    7 1
  10    5    6 ar
  11    5   21 1
  12    6   22 1
  13    7    9 1
  14    8    9 1
  15    8   11 1
  16    8   12 1
  17    9   23 1
  18    9   24 1
  19   10   11 ar
  20   10   13 1
  21   10   18 ar
  22   11   15 ar
  23   12   13 am
  24   12   14 2
  25   13   25 1
  26   15   16 ar
  27   15   26 1
  28   16   17 ar
  29   16   27 1
  30   17   18 ar
  31   17   28 1
  32   18   29 1

#	End of record

