#	Name: ASD01917406
#	Creating user name:	WinNT
#	Creation time:	15. 06. 2019 20:09

#	Modifying user name:	WinNT
#	Modification time:	15. 06. 2019 20:09

#	Program:	/corina/corina34_cracker 3.40 0067  02.08.2006

@<TRIPOS>MOLECULE
ASD01917406
  55   57    0    0    0
SMALL
NO_CHARGES


@<TRIPOS>ATOM
   1 C1            -0.0162     1.3436     0.0094 C.2     
   2 N2             0.0021    -0.0041     0.0020 N.am    
   3 O3             1.0277     1.9654     0.0028 O.2     
   4 O4            -1.1912     2.0008     0.0186 O.3     
   5 C5             1.2806    -0.7192    -0.0140 C.3     
   6 C6             2.1379    -0.3674    -1.2424 C.3     
   7 C7             3.5394    -0.9520    -1.0563 C.3     
   8 C8             3.4584    -2.4598    -0.8097 C.3     
   9 C9             2.5443    -2.7216     0.4001 C.3     
  10 C10            2.9450    -1.7206     1.5083 C.3     
  11 C11            2.1357    -0.4383     1.2431 C.3     
  12 C12            1.1201    -2.2625    -0.0101 C.3     
  13 N13            2.5961    -4.1141     0.8522 N.am    
  14 C14            3.7669    -4.6506     1.2493 C.2     
  15 O15            4.7797    -3.9793     1.2324 O.2     
  16 C16            3.8193    -6.0590     1.7065 C.ar    
  17 C17            5.0326    -6.6077     2.1157 C.ar    
  18 C18            5.0657    -7.9263     2.5412 C.ar    
  19 C19            3.8836    -8.6505     2.5426 C.ar    
  20 C20            2.7128    -8.0404     2.1221 C.ar    
  21 N21            2.7089    -6.7856     1.7279 N.ar    
  22 C22            1.4253    -8.8235     2.1218 C.3     
  23 C23           -1.1349     3.4517     0.0262 C.3     
  24 C24           -0.4003     3.9401    -1.2239 C.3     
  25 C25           -2.5565     4.0172     0.0360 C.3     
  26 C26           -0.3885     3.9266     1.2745 C.3     
  27 H27           -0.8313    -0.5005     0.0073 H       
  28 H28            1.6825    -0.7898    -2.1381 H       
  29 H29            2.2050     0.7160    -1.3421 H       
  30 H30            4.1304    -0.7644    -1.9527 H       
  31 H31            4.0200    -0.4724    -0.2037 H       
  32 H32            3.0470    -2.9519    -1.6909 H       
  33 H33            4.4554    -2.8498    -0.6046 H       
  34 H34            2.6937    -2.1263     2.4883 H       
  35 H35            4.0127    -1.5079     1.4529 H       
  36 H36            2.8094     0.3985     1.0586 H       
  37 H37            1.4904    -0.2199     2.0940 H       
  38 H38            0.3808    -2.5767     0.7266 H       
  39 H39            0.8614    -2.6310    -1.0028 H       
  40 H40            1.7877    -4.6500     0.8657 H       
  41 H41            5.9347    -6.0141     2.1013 H       
  42 H42            5.9914    -8.3794     2.8640 H       
  43 H43            3.8755    -9.6803     2.8679 H       
  44 H44            0.9285    -8.7063     3.0848 H       
  45 H45            0.7747    -8.4527     1.3297 H       
  46 H46            1.6415    -9.8781     1.9505 H       
  47 H47           -0.9321     3.6018    -2.1132 H       
  48 H48           -0.3581     5.0293    -1.2182 H       
  49 H49            0.6125     3.5373    -1.2309 H       
  50 H50           -3.0798     3.6692     0.9266 H       
  51 H51           -2.5142     5.1064     0.0417 H       
  52 H52           -3.0883     3.6789    -0.8533 H       
  53 H53            0.6243     3.5237     1.2675 H       
  54 H54           -0.3462     5.0157     1.2802 H       
  55 H55           -0.9118     3.5786     2.1651 H       
@<TRIPOS>BOND
   1    1    2 am
   2    1    3 2
   3    1    4 1
   4    2    5 1
   5    2   27 1
   6    4   23 1
   7    5    6 1
   8    5   11 1
   9    5   12 1
  10    6    7 1
  11    6   28 1
  12    6   29 1
  13    7    8 1
  14    7   30 1
  15    7   31 1
  16    8    9 1
  17    8   32 1
  18    8   33 1
  19    9   10 1
  20    9   12 1
  21    9   13 1
  22   10   11 1
  23   10   34 1
  24   10   35 1
  25   11   36 1
  26   11   37 1
  27   12   38 1
  28   12   39 1
  29   13   14 am
  30   13   40 1
  31   14   15 2
  32   14   16 1
  33   16   17 ar
  34   16   21 ar
  35   17   18 ar
  36   17   41 1
  37   18   19 ar
  38   18   42 1
  39   19   20 ar
  40   19   43 1
  41   20   21 ar
  42   20   22 1
  43   22   44 1
  44   22   45 1
  45   22   46 1
  46   23   24 1
  47   23   26 1
  48   23   25 1
  49   24   47 1
  50   24   48 1
  51   24   49 1
  52   25   50 1
  53   25   51 1
  54   25   52 1
  55   26   53 1
  56   26   54 1
  57   26   55 1

#	End of record

