#	Name: ASD01708055
#	Creating user name:	WinNT
#	Creation time:	15. 06. 2019 19:22

#	Modifying user name:	WinNT
#	Modification time:	15. 06. 2019 19:22

#	Program:	/corina/corina34_cracker 3.40 0067  02.08.2006

@<TRIPOS>MOLECULE
ASD01708055
  58   60    0    0    0
SMALL
NO_CHARGES


@<TRIPOS>ATOM
   1 C1            -0.0144     1.2111     0.0087 C.2     
   2 O2             0.0021    -0.0041     0.0020 O.2     
   3 C3             1.2575     1.9687     0.0006 C.ar    
   4 C4             2.4749     1.2871    -0.0147 C.ar    
   5 C5             1.2380     3.3638     0.0025 C.ar    
   6 C6             2.4227     4.0707    -0.0060 C.ar    
   7 C7             3.6422     3.3892    -0.0159 C.ar    
   8 C8             3.6607     1.9922    -0.0222 C.ar    
   9 Cl9            5.1752     1.1438    -0.0339 Cl      
  10 Cl10           2.3981     5.8065    -0.0048 Cl      
  11 C11            4.9128     4.1460    -0.0255 C.2     
  12 N12            5.4825     4.4914    -1.1970 N.am    
  13 O13            5.4431     4.4564     1.0232 O.2     
  14 C14            6.7411     5.2411    -1.2065 C.3     
  15 C15            6.4494     6.7142    -1.0796 C.2     
  16 O16            7.4583     7.5994    -1.0656 O.3     
  17 O17            5.3073     7.0983    -0.9903 O.2     
  18 N18           -1.1906     1.8690     0.0179 N.am    
  19 C19            7.4810     4.9791    -2.5198 C.3     
  20 C20            7.8809     3.5278    -2.5901 C.ar    
  21 C21            7.0246     2.6015    -3.1561 C.ar    
  22 C22            7.3914     1.2704    -3.2206 C.ar    
  23 C23           -3.6079     2.0830     0.0305 C.ar    
  24 C24           -2.4493     1.1193     0.0197 C.3     
  25 C25           -4.1448     2.5313    -1.1619 C.ar    
  26 C26           -5.2074     3.4151    -1.1527 C.ar    
  27 C27           -5.7337     3.8511     0.0502 C.ar    
  28 C28           -5.1960     3.4020     1.2432 C.ar    
  29 C29           -4.1371     2.5139     1.2327 C.ar    
  30 Cl30          -7.0680     4.9615     0.0625 Cl      
  31 C31            9.1060     3.1237    -2.0940 C.ar    
  32 C32            9.4728     1.7923    -2.1585 C.ar    
  33 C33            8.6145     0.8653    -2.7191 C.ar    
  34 S34            6.2999     0.0898    -3.9413 S.o2    
  35 O35            6.6508    -1.1381    -3.3180 O.2     
  36 O36            5.0080     0.6560    -3.7690 O.2     
  37 C37            6.7551     0.0653    -5.6971 C.3     
  38 H38            2.4889     0.2072    -0.0202 H       
  39 H39            0.2951     3.8905     0.0102 H       
  40 H40            5.0593     4.2437    -2.0339 H       
  41 H41            7.3615     4.9202    -0.3697 H       
  42 H42            7.2218     8.5333    -0.9824 H       
  43 H43           -1.2038     2.8389     0.0232 H       
  44 H44            6.8271     5.2169    -3.3589 H       
  45 H45            8.3727     5.6043    -2.5655 H       
  46 H46            6.0691     2.9179    -3.5475 H       
  47 H47           -2.5027     0.4968    -0.8734 H       
  48 H48           -2.4943     0.4871     0.9065 H       
  49 H49           -3.7336     2.1911    -2.1009 H       
  50 H50           -5.6265     3.7655    -2.0844 H       
  51 H51           -5.6065     3.7420     2.1825 H       
  52 H52           -3.7172     2.1633     2.1640 H       
  53 H53            9.7768     3.8481    -1.6562 H       
  54 H54           10.4303     1.4766    -1.7712 H       
  55 H55            8.9010    -0.1748    -2.7695 H       
  56 H56            7.7992    -0.2313    -5.7976 H       
  57 H57            6.1225    -0.6471    -6.2265 H       
  58 H58            6.6173     1.0595    -6.1221 H       
@<TRIPOS>BOND
   1    1    2 2
   2    1    3 1
   3    1   18 am
   4    3    4 ar
   5    3    5 ar
   6    4    8 ar
   7    4   38 1
   8    5    6 ar
   9    5   39 1
  10    6    7 ar
  11    6   10 1
  12    7    8 ar
  13    7   11 1
  14    8    9 1
  15   11   12 am
  16   11   13 2
  17   12   14 1
  18   12   40 1
  19   14   15 1
  20   14   19 1
  21   14   41 1
  22   15   16 1
  23   15   17 2
  24   16   42 1
  25   18   24 1
  26   18   43 1
  27   19   20 1
  28   19   44 1
  29   19   45 1
  30   20   21 ar
  31   20   31 ar
  32   21   22 ar
  33   21   46 1
  34   22   34 1
  35   22   33 ar
  36   23   24 1
  37   23   25 ar
  38   23   29 ar
  39   24   47 1
  40   24   48 1
  41   25   26 ar
  42   25   49 1
  43   26   27 ar
  44   26   50 1
  45   27   28 ar
  46   27   30 1
  47   28   29 ar
  48   28   51 1
  49   29   52 1
  50   31   32 ar
  51   31   53 1
  52   32   33 ar
  53   32   54 1
  54   33   55 1
  55   34   35 2
  56   34   36 2
  57   34   37 1
  58   37   56 1
  59   37   57 1
  60   37   58 1

#	End of record

