#	Name: ASD00844677
#	Creating user name:	WinNT
#	Creation time:	15. 06. 2019 18:50

#	Modifying user name:	WinNT
#	Modification time:	15. 06. 2019 18:50

#	Program:	/corina/corina34_cracker 3.40 0067  02.08.2006

@<TRIPOS>MOLECULE
ASD00844677
  99  104    0    0    0
SMALL
NO_CHARGES


@<TRIPOS>ATOM
   1 C1             0.7859     1.2409    -0.4442 C.ar    
   2 C2             1.0205    -0.1030    -0.6955 C.ar    
   3 C3             0.9066    -1.0286     0.3319 C.ar    
   4 C4             0.5600    -0.6101     1.6017 C.ar    
   5 C5             0.3261     0.7302     1.8495 C.ar    
   6 C6             0.4395     1.6545     0.8277 C.ar    
   7 C7             1.1603    -2.4894     0.0623 C.3     
   8 C8             0.8423    -3.3183     1.2886 C.2     
   9 C9             0.3340    -2.9639    -1.1348 C.3     
  10 C10           -1.1222    -2.6614    -0.8916 C.2     
  11 N11           -2.0543    -3.0877    -1.7667 N.am    
  12 O12           -1.4553    -2.0342     0.0916 O.2     
  13 C13           -3.4665    -2.7075    -1.6104 C.3     
  14 C14           -3.9678    -2.1388    -2.9421 C.3     
  15 N15           -3.6999    -3.1052    -4.0155 N.3     
  16 C16           -2.2577    -3.3279    -4.1842 C.3     
  17 C17           -1.6853    -3.9404    -2.9069 C.3     
  18 C18           -4.3174    -2.6752    -5.2771 C.3     
  19 C19           -3.9147    -3.6376    -6.3980 C.3     
  20 C20           -4.6092    -3.2201    -7.6962 C.3     
  21 N21           -6.0649    -3.2457    -7.5041 N.3     
  22 C22           -6.4801    -2.2947    -6.4652 C.3     
  23 C23           -5.8414    -2.6845    -5.1302 C.3     
  24 C24           -6.7672    -2.9849    -8.7677 C.3     
  25 O25           -0.2376    -3.4152     1.8320 O.2     
  26 N26            1.9803    -3.9271     1.6615 N.am    
  27 C27            2.6328    -2.7366    -0.1750 C.ar    
  28 C28            3.0487    -3.6095     0.8275 C.ar    
  29 C29            3.5121    -2.2783    -1.1230 C.ar    
  30 C30            4.8493    -2.6897    -1.0888 C.ar    
  31 C31            5.2746    -3.5671    -0.0840 C.ar    
  32 C32            4.3809    -4.0216     0.8621 C.ar    
  33 F33            6.5633    -3.9702    -0.0423 F       
  34 C34            1.7577    -6.5710     2.3925 C.ar    
  35 C35            0.4964    -6.8856     1.9074 C.ar    
  36 C36            2.7483    -7.5342     2.4210 C.ar    
  37 C37            2.4858    -8.8121     1.9664 C.ar    
  38 C38            1.2257    -9.1317     1.4802 C.ar    
  39 C39            0.2303    -8.1675     1.4510 C.ar    
  40 O40            0.9679   -10.3890     1.0336 O.3     
  41 O41           -0.4774    -5.9381     1.8800 O.3     
  42 C42           -1.7518    -6.3323     1.3676 C.3     
  43 C43            2.0404   -11.3315     1.0936 C.3     
  44 C44           -8.2609    -3.2632    -8.5878 C.3     
  45 C45           -8.9924    -2.9915    -9.9038 C.3     
  46 C46            5.7751    -2.2175    -2.0740 C.1     
  47 N47            6.5095    -1.8429    -2.8555 N.1     
  48 O48            1.3610    -0.5123    -1.9458 O.3     
  49 C49            1.3898     0.4844    -2.9694 C.3     
  50 C50            1.8711    -0.1433    -4.2791 C.3     
  51 F51            3.1180    -0.7449    -4.0773 F       
  52 F52            0.9501    -1.1088    -4.6996 F       
  53 S53            2.0988    -4.9402     2.9660 S.o2    
  54 O54            3.4644    -4.9305     3.3589 O.2     
  55 O55            1.0355    -4.5924     3.8421 O.2     
  56 H56            0.8783     1.9639    -1.2412 H       
  57 H57            0.4711    -1.3302     2.4017 H       
  58 H58            0.0545     1.0554     2.8429 H       
  59 H59            0.2563     2.7006     1.0238 H       
  60 H60            0.6673    -2.4464    -2.0343 H       
  61 H61            0.4652    -4.0382    -1.2639 H       
  62 H62           -4.0545    -3.5854    -1.3426 H       
  63 H63           -3.5578    -1.9506    -0.8314 H       
  64 H64           -5.0402    -1.9542    -2.8781 H       
  65 H65           -3.4497    -1.2041    -3.1565 H       
  66 H66           -2.0899    -4.0058    -5.0211 H       
  67 H67           -1.7634    -2.3767    -4.3813 H       
  68 H68           -0.5998    -4.0012    -2.9845 H       
  69 H69           -2.1012    -4.9373    -2.7606 H       
  70 H70           -3.9803    -1.6682    -5.5230 H       
  71 H71           -2.8340    -3.6034    -6.5362 H       
  72 H72           -4.2164    -4.6510    -6.1334 H       
  73 H73           -4.2963    -2.2119    -7.9675 H       
  74 H74           -4.3358    -3.9118    -8.4930 H       
  75 H75           -6.1585    -1.2907    -6.7422 H       
  76 H76           -7.5656    -2.3142    -6.3679 H       
  77 H77           -6.1735    -3.6829    -4.8457 H       
  78 H78           -6.1374    -1.9694    -4.3626 H       
  79 H79           -6.6237    -1.9432    -9.0549 H       
  80 H80           -6.3678    -3.6347    -9.5463 H       
  81 H81            3.1732    -1.6020    -1.8939 H       
  82 H82            4.7143    -4.6983     1.6349 H       
  83 H83            3.7295    -7.2874     2.7990 H       
  84 H84            3.2618    -9.5629     1.9890 H       
  85 H85           -0.7510    -8.4144     1.0734 H       
  86 H86           -2.1514    -7.1455     1.9735 H       
  87 H87           -2.4354    -5.4839     1.4018 H       
  88 H88           -1.6408    -6.6680     0.3366 H       
  89 H89            2.3636   -11.4486     2.1280 H       
  90 H90            1.7013   -12.2929     0.7078 H       
  91 H91            2.8743   -10.9718     0.4909 H       
  92 H92           -8.4044    -4.3048    -8.3006 H       
  93 H93           -8.6604    -2.6133    -7.8092 H       
  94 H94           -8.8489    -1.9499   -10.1910 H       
  95 H95           -8.5930    -3.6414   -10.6824 H       
  96 H96          -10.0566    -3.1898    -9.7756 H       
  97 H97            0.3883     0.8916    -3.1082 H       
  98 H98            2.0703     1.2846    -2.6784 H       
  99 H99            1.9601     0.6304    -5.0417 H       
@<TRIPOS>BOND
   1    1    2 ar
   2    1    6 ar
   3    1   56 1
   4    2    3 ar
   5    2   48 1
   6    3    4 ar
   7    3    7 1
   8    4    5 ar
   9    4   57 1
  10    5    6 ar
  11    5   58 1
  12    6   59 1
  13    7    8 1
  14    7    9 1
  15    7   27 1
  16    8   25 2
  17    8   26 am
  18    9   10 1
  19    9   60 1
  20    9   61 1
  21   10   11 am
  22   10   12 2
  23   11   13 1
  24   11   17 1
  25   13   14 1
  26   13   62 1
  27   13   63 1
  28   14   15 1
  29   14   64 1
  30   14   65 1
  31   15   16 1
  32   15   18 1
  33   16   17 1
  34   16   66 1
  35   16   67 1
  36   17   68 1
  37   17   69 1
  38   18   19 1
  39   18   23 1
  40   18   70 1
  41   19   20 1
  42   19   71 1
  43   19   72 1
  44   20   21 1
  45   20   73 1
  46   20   74 1
  47   21   22 1
  48   21   24 1
  49   22   23 1
  50   22   75 1
  51   22   76 1
  52   23   77 1
  53   23   78 1
  54   24   44 1
  55   24   79 1
  56   24   80 1
  57   26   53 am
  58   26   28 1
  59   27   28 ar
  60   27   29 ar
  61   28   32 ar
  62   29   30 ar
  63   29   81 1
  64   30   31 ar
  65   30   46 1
  66   31   32 ar
  67   31   33 1
  68   32   82 1
  69   34   35 ar
  70   34   36 ar
  71   34   53 1
  72   35   41 1
  73   35   39 ar
  74   36   37 ar
  75   36   83 1
  76   37   38 ar
  77   37   84 1
  78   38   39 ar
  79   38   40 1
  80   39   85 1
  81   40   43 1
  82   41   42 1
  83   42   86 1
  84   42   87 1
  85   42   88 1
  86   43   89 1
  87   43   90 1
  88   43   91 1
  89   44   45 1
  90   44   92 1
  91   44   93 1
  92   45   94 1
  93   45   95 1
  94   45   96 1
  95   46   47 3
  96   48   49 1
  97   49   50 1
  98   49   97 1
  99   49   98 1
 100   50   51 1
 101   50   52 1
 102   50   99 1
 103   53   54 2
 104   53   55 2

#	End of record

