#	Name: ASD01812379
#	Creating user name:	WinNT
#	Creation time:	15. 06. 2019 19:28

#	Modifying user name:	WinNT
#	Modification time:	15. 06. 2019 19:28

#	Program:	/corina/corina34_cracker 3.40 0067  02.08.2006

@<TRIPOS>MOLECULE
ASD01812379
  56   60    0    0    0
SMALL
NO_CHARGES


@<TRIPOS>ATOM
   1 C1            -0.0167     1.3780     0.0096 C.ar    
   2 C2             0.0021    -0.0041     0.0020 C.ar    
   3 N3             1.1441    -0.6630    -0.0120 N.ar    
   4 C4             2.3054    -0.0380    -0.0197 C.ar    
   5 C5             2.3651     1.3426    -0.0128 C.ar    
   6 C6             1.1846     2.0699     0.0019 C.ar    
   7 C7            -1.2977    -0.7666     0.0103 C.3     
   8 C8             3.6964     2.0487    -0.0207 C.3     
   9 C9             4.1277     2.2917    -1.4441 C.ar    
  10 C10            4.9544     1.4056    -2.0479 C.ar    
  11 C11            3.6576     3.4352    -2.1240 C.ar    
  12 C12            4.0565     3.6727    -3.4620 C.ar    
  13 C13            4.9528     2.7162    -4.1045 C.ar    
  14 C14            5.3819     1.5921    -3.3731 C.ar    
  15 C15            2.7964     4.3476    -1.4960 C.ar    
  16 C16            2.3579     5.4435    -2.1780 C.ar    
  17 C17            2.7513     5.6733    -3.4922 C.ar    
  18 C18            3.5881     4.8062    -4.1328 C.ar    
  19 C19            5.3975     2.8802    -5.4348 C.2     
  20 C20            6.2244     1.9729    -5.9868 C.2     
  21 N21            6.6619     0.8776    -5.3037 N.am    
  22 C22            6.2815     0.6404    -4.0312 C.2     
  23 O23            6.6837    -0.3447    -3.4374 O.2     
  24 C24            7.5608    -0.0684    -5.9694 C.3     
  25 C25            6.8701    -0.6431    -7.2078 C.3     
  26 C26            7.8089    -1.6310    -7.9031 C.3     
  27 C27            9.0901    -0.9078    -8.3232 C.3     
  28 C28            9.7808    -0.3331    -7.0848 C.3     
  29 C29            8.8420     0.6548    -6.3895 C.3     
  30 O30            9.4871     1.1916    -5.2329 O.3     
  31 H31           -0.9553     1.9121     0.0170 H       
  32 H32            3.2203    -0.6118    -0.0312 H       
  33 H33            1.2007     3.1498     0.0075 H       
  34 H34           -1.6209    -0.9449    -1.0153 H       
  35 H35           -1.1559    -1.7208     0.5177 H       
  36 H36           -2.0565    -0.1856     0.5346 H       
  37 H37            3.6049     3.0024     0.4990 H       
  38 H38            4.4389     1.4300     0.4833 H       
  39 H39            5.2922     0.5385    -1.4998 H       
  40 H40            2.4817     4.1821    -0.4762 H       
  41 H41            1.6950     6.1433    -1.6909 H       
  42 H42            2.3900     6.5483    -4.0119 H       
  43 H43            3.8866     4.9946    -5.1535 H       
  44 H44            5.0734     3.7348    -6.0102 H       
  45 H45            6.5521     2.1174    -7.0057 H       
  46 H46            7.8090    -0.8781    -5.2832 H       
  47 H47            5.9574    -1.1583    -6.9085 H       
  48 H48            6.6219     0.1667    -7.8940 H       
  49 H49            8.0571    -2.4407    -7.2169 H       
  50 H50            7.3168    -2.0404    -8.7853 H       
  51 H51            9.7589    -1.6116    -8.8185 H       
  52 H52            8.8419    -0.0981    -9.0094 H       
  53 H53           10.0290    -1.1428    -6.3986 H       
  54 H54           10.6935     0.1821    -7.3841 H       
  55 H55            8.5938     1.4646    -7.0757 H       
  56 H56           10.3082     1.6649    -5.4246 H       
@<TRIPOS>BOND
   1    1    2 ar
   2    1    6 ar
   3    1   31 1
   4    2    3 ar
   5    2    7 1
   6    3    4 ar
   7    4    5 ar
   8    4   32 1
   9    5    6 ar
  10    5    8 1
  11    6   33 1
  12    7   34 1
  13    7   35 1
  14    7   36 1
  15    8    9 1
  16    8   37 1
  17    8   38 1
  18    9   10 ar
  19    9   11 ar
  20   10   14 ar
  21   10   39 1
  22   11   12 ar
  23   11   15 ar
  24   12   13 ar
  25   12   18 ar
  26   13   14 ar
  27   13   19 1
  28   14   22 1
  29   15   16 ar
  30   15   40 1
  31   16   17 ar
  32   16   41 1
  33   17   18 ar
  34   17   42 1
  35   18   43 1
  36   19   20 2
  37   19   44 1
  38   20   21 1
  39   20   45 1
  40   21   22 am
  41   21   24 1
  42   22   23 2
  43   24   25 1
  44   24   29 1
  45   24   46 1
  46   25   26 1
  47   25   47 1
  48   25   48 1
  49   26   27 1
  50   26   49 1
  51   26   50 1
  52   27   28 1
  53   27   51 1
  54   27   52 1
  55   28   29 1
  56   28   53 1
  57   28   54 1
  58   29   30 1
  59   29   55 1
  60   30   56 1

#	End of record

