#	Name: ASD01915995
#	Creating user name:	WinNT
#	Creation time:	15. 06. 2019 20:06

#	Modifying user name:	WinNT
#	Modification time:	15. 06. 2019 20:06

#	Program:	/corina/corina34_cracker 3.40 0067  02.08.2006

@<TRIPOS>MOLECULE
ASD01915995
  38   39    0    0    0
SMALL
NO_CHARGES


@<TRIPOS>ATOM
   1 C1            -0.0170     1.3998     0.0097 C.ar    
   2 C2             0.0021    -0.0041     0.0020 C.ar    
   3 C3             1.2484    -0.6505    -0.0134 C.ar    
   4 N4             2.3459     0.0794    -0.0199 N.ar    
   5 C5             2.2838     1.4042    -0.0122 C.ar    
   6 N6             1.1275     2.0537     0.0023 N.ar    
   7 C7             3.5454     2.1829    -0.0196 C.2     
   8 N8             3.5059     3.5300    -0.0119 N.am    
   9 O9             4.6150     1.6065    -0.0325 O.2     
  10 C10            4.7525     4.2995    -0.0192 C.3     
  11 C11            5.5538     3.9603    -1.2777 C.3     
  12 C12            4.4290     5.7948    -0.0082 C.3     
  13 C13            5.5767     3.9469     1.2206 C.3     
  14 C14           -1.2165    -0.7562     0.0101 C.1     
  15 C15           -2.2155    -1.3728     0.0167 C.1     
  16 C16           -3.4341    -2.1249     0.0248 C.ar    
  17 C17           -3.3969    -3.5218     0.0169 C.ar    
  18 C18           -4.6664    -1.4652     0.0463 C.ar    
  19 C19           -5.8360    -2.1955     0.0539 C.ar    
  20 C20           -4.5759    -4.2398     0.0247 C.ar    
  21 C21           -5.7926    -3.5787     0.0407 C.ar    
  22 Cl22          -4.5332    -5.9753     0.0144 Cl      
  23 H23           -0.9547     1.9356     0.0171 H       
  24 H24            1.3068    -1.7289    -0.0193 H       
  25 H25            2.6520     3.9902    -0.0016 H       
  26 H26            4.9667     4.2115    -2.1610 H       
  27 H27            6.4814     4.5328    -1.2831 H       
  28 H28            5.7843     2.8950    -1.2856 H       
  29 H29            3.8581     6.0365     0.8884 H       
  30 H30            5.3565     6.3673    -0.0136 H       
  31 H31            3.8418     6.0461    -0.8915 H       
  32 H32            5.8072     2.8815     1.2128 H       
  33 H33            6.5043     4.5193     1.2152 H       
  34 H34            5.0059     4.1885     2.1172 H       
  35 H35           -2.4485    -4.0382     0.0044 H       
  36 H36           -4.7023    -0.3858     0.0573 H       
  37 H37           -6.7885    -1.6867     0.0706 H       
  38 H38           -6.7121    -4.1453     0.0472 H       
@<TRIPOS>BOND
   1    1    2 ar
   2    1    6 ar
   3    1   23 1
   4    2    3 ar
   5    2   14 1
   6    3    4 ar
   7    3   24 1
   8    4    5 ar
   9    5    6 ar
  10    5    7 1
  11    7    8 am
  12    7    9 2
  13    8   10 1
  14    8   25 1
  15   10   11 1
  16   10   12 1
  17   10   13 1
  18   11   26 1
  19   11   27 1
  20   11   28 1
  21   12   29 1
  22   12   30 1
  23   12   31 1
  24   13   32 1
  25   13   33 1
  26   13   34 1
  27   14   15 3
  28   15   16 1
  29   16   17 ar
  30   16   18 ar
  31   17   20 ar
  32   17   35 1
  33   18   19 ar
  34   18   36 1
  35   19   21 ar
  36   19   37 1
  37   20   22 1
  38   20   21 ar
  39   21   38 1

#	End of record

