#	Name: ASD01883046
#	Creating user name:	WinNT
#	Creation time:	15. 06. 2019 19:45

#	Modifying user name:	WinNT
#	Modification time:	15. 06. 2019 19:45

#	Program:	/corina/corina34_cracker 3.40 0067  02.08.2006

@<TRIPOS>MOLECULE
ASD01883046
  45   47    0    0    0
SMALL
NO_CHARGES


@<TRIPOS>ATOM
   1 N1            -0.1430     1.3469    -1.2872 N.am    
   2 C2            -0.2603     0.0898    -1.7535 C.2     
   3 C3            -1.4623    -0.6312    -1.5472 C.2     
   4 C4            -2.5131    -0.0065    -0.8524 C.2     
   5 C5            -2.3287     1.3112    -0.3893 C.2     
   6 C6            -1.1563     1.9473    -0.6115 C.2     
   7 O7             0.6666    -0.4277    -2.3531 O.2     
   8 C8            -1.6044    -1.9694    -2.0369 C.1     
   9 N9            -1.7171    -3.0309    -2.4254 N.1     
  10 C10            1.1058     2.0803    -1.5080 C.3     
  11 C11            1.0207     2.8460    -2.8298 C.3     
  12 C12           -5.7869    -1.7390    -1.4626 C.ar    
  13 C13           -3.7859    -0.7179    -0.6131 C.ar    
  14 C14           -4.1776    -1.0334     0.6903 C.ar    
  15 C15           -6.1729    -2.0515    -0.1644 C.ar    
  16 O16           -7.3425    -2.7046     0.0554 O.3     
  17 C17           -7.3259    -4.0620     0.0467 C.ar    
  18 C18           -8.5084    -4.7919     0.1518 C.ar    
  19 C19           -8.4487    -6.1715     0.1385 C.ar    
  20 N20           -7.2920    -6.7969     0.0282 N.ar    
  21 C21           -6.1518    -6.1404    -0.0734 C.ar    
  22 C22           -6.1272    -4.7608    -0.0733 C.ar    
  23 C23           -4.6010    -1.0763    -1.6897 C.ar    
  24 C24           -5.3650    -1.6962     0.9092 C.ar    
  25 C25            2.3249     3.6120    -3.0604 C.3     
  26 C26            2.2399     4.3777    -4.3823 C.3     
  27 Cl27         -10.0350    -3.9783     0.2979 Cl      
  28 H28           -3.1216     1.8114     0.1468 H       
  29 H29           -1.0262     2.9572    -0.2515 H       
  30 H30            1.2635     2.7836    -0.6902 H       
  31 H31            1.9378     1.3773    -1.5482 H       
  32 H32            0.8630     2.1427    -3.6476 H       
  33 H33            0.1887     3.5490    -2.7896 H       
  34 H34           -6.4154    -2.0203    -2.2946 H       
  35 H35           -3.5500    -0.7583     1.5250 H       
  36 H36           -9.3598    -6.7457     0.2198 H       
  37 H37           -5.2263    -6.6900    -0.1619 H       
  38 H38           -5.1904    -4.2301    -0.1571 H       
  39 H39           -4.3014    -0.8344    -2.6987 H       
  40 H40           -5.6685    -1.9405     1.9165 H       
  41 H41            2.4827     4.3152    -2.2427 H       
  42 H42            3.1570     2.9090    -3.1006 H       
  43 H43            2.0821     3.6744    -5.2000 H       
  44 H44            1.4078     5.0807    -4.3421 H       
  45 H45            3.1690     4.9234    -4.5465 H       
@<TRIPOS>BOND
   1    1    2 am
   2    1   10 1
   3    1    6 1
   4    2    3 1
   5    2    7 2
   6    3    4 2
   7    3    8 1
   8    4    5 1
   9    4   13 1
  10    5    6 2
  11    5   28 1
  12    6   29 1
  13    8    9 3
  14   10   11 1
  15   10   30 1
  16   10   31 1
  17   11   25 1
  18   11   32 1
  19   11   33 1
  20   12   23 ar
  21   12   15 ar
  22   12   34 1
  23   13   14 ar
  24   13   23 ar
  25   14   24 ar
  26   14   35 1
  27   15   16 1
  28   15   24 ar
  29   16   17 1
  30   17   18 ar
  31   17   22 ar
  32   18   19 ar
  33   18   27 1
  34   19   20 ar
  35   19   36 1
  36   20   21 ar
  37   21   22 ar
  38   21   37 1
  39   22   38 1
  40   23   39 1
  41   24   40 1
  42   25   26 1
  43   25   41 1
  44   25   42 1
  45   26   43 1
  46   26   44 1
  47   26   45 1

#	End of record

