#	Name: ASD08710101
#	Creating user name:	WinNT
#	Creation time:	15. 06. 2019 21:19

#	Modifying user name:	WinNT
#	Modification time:	15. 06. 2019 21:19

#	Program:	/corina/corina34_cracker 3.40 0067  02.08.2006

@<TRIPOS>MOLECULE
ASD08710101
  54   55    0    0    0
SMALL
NO_CHARGES


@<TRIPOS>ATOM
   1 N1            -0.1857     1.5250    -0.9875 N.am    
   2 C2            -0.1476     0.0965    -0.6442 C.3     
   3 C3             0.8612    -0.6019    -1.5644 C.3     
   4 N4             2.1160     0.1632    -1.5521 N.am    
   5 C5             2.0779     1.5916    -1.8954 C.3     
   6 C6             1.0691     2.2901    -0.9752 C.3     
   7 S7            -1.6158     2.2579    -1.3877 S.o2    
   8 O8            -1.2786     3.3960    -2.1688 O.2     
   9 O9            -2.4796     1.2276    -1.8477 O.2     
  10 C10           -2.3233     2.8708     0.1051 C.ar    
  11 C11           -2.0256     4.1498     0.5368 C.ar    
  12 C12           -2.5807     4.6307     1.7079 C.ar    
  13 C13           -3.4338     3.8327     2.4471 C.ar    
  14 C14           -3.7322     2.5540     2.0149 C.ar    
  15 C15           -3.1806     2.0747     0.8415 C.ar    
  16 C16           -4.0382     4.3566     3.7243 C.3     
  17 F17           -5.2534     4.9888     3.4403 F       
  18 F18           -4.2606     3.2930     4.6055 F       
  19 F19           -3.1615     5.2743     4.3129 F       
  20 C20            3.2807    -0.4344    -1.2313 C.2     
  21 O21            3.2864    -1.5874    -0.8463 O.2     
  22 C22            5.4730     0.3122    -0.2999 C.ar    
  23 C23            4.5513     0.3123    -1.3478 C.ar    
  24 C24            4.8504     1.0310    -2.5112 C.ar    
  25 C25            6.0534     1.7127    -2.5700 C.ar    
  26 C26            6.9134     1.6628    -1.4879 C.ar    
  27 N27            6.6049     0.9768    -0.4036 N.ar    
  28 C28            5.1675    -0.4501     0.9637 C.3     
  29 C29            0.2861    -0.0699     0.8135 C.3     
  30 H30           -1.1360    -0.3404    -0.7866 H       
  31 H31            1.0461    -1.6137    -1.2034 H       
  32 H32            0.4656    -0.6395    -2.5794 H       
  33 H33            3.0664     2.0285    -1.7530 H       
  34 H34            1.7690     1.7102    -2.9339 H       
  35 H35            0.8842     3.3018    -1.3362 H       
  36 H36            1.4647     2.3277     0.0397 H       
  37 H37           -1.3591     4.7733    -0.0407 H       
  38 H38           -2.3476     5.6297     2.0456 H       
  39 H39           -4.3985     1.9305     2.5925 H       
  40 H40           -3.4166     1.0771     0.5018 H       
  41 H41            4.1604     1.0526    -3.3418 H       
  42 H42            6.3180     2.2775    -3.4516 H       
  43 H43            7.8528     2.1938    -1.5310 H       
  44 H44            5.4566    -1.4934     0.8376 H       
  45 H45            5.7252    -0.0162     1.7936 H       
  46 H46            4.0995    -0.3919     1.1739 H       
  47 H47           -0.4241     0.4401     1.4644 H       
  48 H48            0.3135    -1.1300     1.0657 H       
  49 H49            1.2778     0.3616     0.9491 H       
  50 C50           13.7953    11.8378     9.6129 C.2     
  51 O51           13.8117    10.6297     9.6062 O.2     
  52 O52           14.9485    12.5247     9.6055 O.3     
  53 H53           12.8528    12.3651     9.6202 H       
  54 H54           14.8848    13.4896     9.6113 H       
@<TRIPOS>BOND
   1    1    2 1
   2    1    6 1
   3    1    7 am
   4    2    3 1
   5    2   29 1
   6    2   30 1
   7    3    4 1
   8    3   31 1
   9    3   32 1
  10    4    5 1
  11    4   20 am
  12    5    6 1
  13    5   33 1
  14    5   34 1
  15    6   35 1
  16    6   36 1
  17    7    8 2
  18    7    9 2
  19    7   10 1
  20   10   11 ar
  21   10   15 ar
  22   11   12 ar
  23   11   37 1
  24   12   13 ar
  25   12   38 1
  26   13   14 ar
  27   13   16 1
  28   14   15 ar
  29   14   39 1
  30   15   40 1
  31   16   17 1
  32   16   18 1
  33   16   19 1
  34   20   21 2
  35   20   23 1
  36   22   23 ar
  37   22   27 ar
  38   22   28 1
  39   23   24 ar
  40   24   25 ar
  41   24   41 1
  42   25   26 ar
  43   25   42 1
  44   26   27 ar
  45   26   43 1
  46   28   44 1
  47   28   45 1
  48   28   46 1
  49   29   47 1
  50   29   48 1
  51   29   49 1
  52   50   51 2
  53   50   52 1
  54   50   53 1
  55   52   54 1

#	End of record

