#	Name: ASD06170013
#	Creating user name:	WinNT
#	Creation time:	15. 06. 2019 21:05

#	Modifying user name:	WinNT
#	Modification time:	15. 06. 2019 21:05

#	Program:	/corina/corina34_cracker 3.40 0067  02.08.2006

@<TRIPOS>MOLECULE
ASD06170013
  71   76    0    0    0
SMALL
NO_CHARGES


@<TRIPOS>ATOM
   1 N1            -0.4208     1.2187    -0.1064 N.pl3   
   2 N2             0.0428    -0.0996    -0.0761 N.am    
   3 C3             1.3316    -0.1013     0.3193 C.2     
   4 C4             1.7086     1.2994     0.5541 C.2     
   5 C5             0.5779     2.0652     0.2721 C.2     
   6 C6             3.0152     1.7940     0.9971 C.2     
   7 O7             3.1982     2.9891     1.1365 O.2     
   8 N8             4.0141     0.9253     1.2502 N.am    
   9 C9             1.1910     5.7338    -0.2702 C.ar    
  10 C10            1.3179     4.3640    -0.3902 C.ar    
  11 C11            0.4799     3.5362     0.3670 C.ar    
  12 C12           -0.4539     4.1422     1.2163 C.ar    
  13 C13           -0.5109     5.5208     1.2730 C.ar    
  14 N14            0.2976     6.2627     0.5422 N.ar    
  15 C15           -0.7444    -1.2869    -0.4179 C.3     
  16 C16            0.1590    -2.5215    -0.3957 C.3     
  17 C17           -1.8552    -1.4592     0.5859 C.ar    
  18 C18           -3.1023    -1.8869     0.1702 C.ar    
  19 C19           -4.1212    -2.0449     1.0909 C.ar    
  20 C20           -3.8929    -1.7756     2.4274 C.ar    
  21 C21           -2.6456    -1.3488     2.8433 C.ar    
  22 C22           -1.6255    -1.1950     1.9232 C.ar    
  23 O23            2.0463    -1.0768     0.4562 O.2     
  24 C24           -1.7733     1.6288    -0.4925 C.3     
  25 C25            5.2217     1.3849     1.7755 C.ar    
  26 C26            5.5739     2.7213     1.6222 C.ar    
  27 C27            6.7734     3.1666     2.1473 C.ar    
  28 C28            7.5863     2.2524     2.8133 C.ar    
  29 C29            7.1703     0.9357     2.9275 C.ar    
  30 N30            6.0171     0.5456     2.4189 N.ar    
  31 O31            8.7740     2.6472     3.3444 O.3     
  32 N32            8.6840     4.7001     6.9203 N.ar    
  33 C33            7.5643     4.3618     6.3250 C.ar    
  34 C34            7.5553     3.6706     5.1203 C.ar    
  35 C35            8.7525     3.3223     4.5197 C.ar    
  36 C36            9.9521     3.6916     5.1696 C.ar    
  37 C37           11.2036     3.3740     4.6219 C.ar    
  38 C38           12.3408     3.7439     5.2714 C.ar    
  39 C39           12.2786     4.4392     6.4825 C.ar    
  40 C40           11.0657     4.7655     7.0457 C.ar    
  41 C41            9.8772     4.3958     6.3962 C.ar    
  42 O42           13.4285     4.7966     7.1112 O.3     
  43 C43           14.6555     4.4292     6.4775 C.3     
  44 H44            3.8932    -0.0196     1.0672 H       
  45 H45            1.8357     6.3807    -0.8466 H       
  46 H46            2.0518     3.9377    -1.0580 H       
  47 H47           -1.1196     3.5408     1.8176 H       
  48 H48           -1.2279     5.9978     1.9247 H       
  49 H49           -1.1703    -1.1662    -1.4139 H       
  50 H50            0.5849    -2.6423     0.6003 H       
  51 H51           -0.4267    -3.4049    -0.6500 H       
  52 H52            0.9624    -2.3969    -1.1218 H       
  53 H53           -3.2806    -2.0973    -0.8740 H       
  54 H54           -5.0957    -2.3783     0.7660 H       
  55 H55           -4.6892    -1.8983     3.1467 H       
  56 H56           -2.4673    -1.1381     3.8874 H       
  57 H57           -0.6499    -0.8650     2.2486 H       
  58 H58           -2.4325     1.5681     0.3735 H       
  59 H59           -1.7507     2.6544    -0.8608 H       
  60 H60           -2.1428     0.9689    -1.2774 H       
  61 H61            4.9193     3.4028     1.0994 H       
  62 H62            7.0730     4.1990     2.0431 H       
  63 H63            7.7953     0.2212     3.4426 H       
  64 H64            6.6240     4.6280     6.7847 H       
  65 H65            6.6177     3.4056     4.6543 H       
  66 H66           11.2646     2.8368     3.6870 H       
  67 H67           13.3025     3.4971     4.8465 H       
  68 H68           11.0285     5.3026     7.9819 H       
  69 H69           15.4942     4.7739     7.0824 H       
  70 H70           14.7018     3.3449     6.3764 H       
  71 H71           14.7064     4.8887     5.4904 H       
@<TRIPOS>BOND
   1    1    2 1
   2    1    5 1
   3    1   24 1
   4    2    3 am
   5    2   15 1
   6    3    4 1
   7    3   23 2
   8    4    5 2
   9    4    6 1
  10    5   11 1
  11    6    7 2
  12    6    8 am
  13    8   25 1
  14    8   44 1
  15    9   10 ar
  16    9   14 ar
  17    9   45 1
  18   10   11 ar
  19   10   46 1
  20   11   12 ar
  21   12   13 ar
  22   12   47 1
  23   13   14 ar
  24   13   48 1
  25   15   16 1
  26   15   17 1
  27   15   49 1
  28   16   50 1
  29   16   51 1
  30   16   52 1
  31   17   18 ar
  32   17   22 ar
  33   18   19 ar
  34   18   53 1
  35   19   20 ar
  36   19   54 1
  37   20   21 ar
  38   20   55 1
  39   21   22 ar
  40   21   56 1
  41   22   57 1
  42   24   58 1
  43   24   59 1
  44   24   60 1
  45   25   26 ar
  46   25   30 ar
  47   26   27 ar
  48   26   61 1
  49   27   28 ar
  50   27   62 1
  51   28   29 ar
  52   28   31 1
  53   29   30 ar
  54   29   63 1
  55   31   35 1
  56   32   33 ar
  57   32   41 ar
  58   33   34 ar
  59   33   64 1
  60   34   35 ar
  61   34   65 1
  62   35   36 ar
  63   36   37 ar
  64   36   41 ar
  65   37   38 ar
  66   37   66 1
  67   38   39 ar
  68   38   67 1
  69   39   40 ar
  70   39   42 1
  71   40   41 ar
  72   40   68 1
  73   42   43 1
  74   43   69 1
  75   43   70 1
  76   43   71 1

#	End of record

