#	Name: ASD01410823
#	Creating user name:	WinNT
#	Creation time:	15. 06. 2019 19:18

#	Modifying user name:	WinNT
#	Modification time:	15. 06. 2019 19:18

#	Program:	/corina/corina34_cracker 3.40 0067  02.08.2006

@<TRIPOS>MOLECULE
ASD01410823
  62   63    0    0    0
SMALL
NO_CHARGES


@<TRIPOS>ATOM
   1 C1             1.0804     1.5834    -0.3820 C.3     
   2 C2             0.7733     0.0732    -0.2613 C.3     
   3 N3             1.0785    -0.2442     1.1517 N.am    
   4 C4             0.8665     0.9629     1.9544 C.3     
   5 C5             0.5362     2.1110     0.9745 C.3     
   6 C6            -0.2846     0.7519     2.9038 C.2     
   7 O7            -0.8744    -0.3026     2.9133 O.2     
   8 O8            -0.6548     1.7354     3.7390 O.3     
   9 C9            -1.7717     1.4619     4.6255 C.3     
  10 C10            1.7559    -0.7356    -1.1140 C.3     
  11 N11            1.5794    -2.1576    -0.8030 N.3     
  12 C12            1.8921    -2.5128     0.5747 C.3     
  13 C13            1.5266    -1.4425     1.5601 C.2     
  14 O14            1.6378    -1.6633     2.7475 O.2     
  15 C15            1.1351    -3.7923     0.9361 C.3     
  16 C16            1.4450    -4.8773    -0.0973 C.3     
  17 C17            1.5720    -4.2690     2.3227 C.3     
  18 C18           -0.3687    -3.5102     0.9441 C.3     
  19 Si19           2.8714     3.1437    -1.3597 Si      
  20 C20            4.7244     3.3234    -1.4290 C.3     
  21 C21            2.1316     4.6479    -0.5468 C.3     
  22 C22            2.1985     2.9782    -3.0891 C.3     
  23 C23            5.2771     3.4593    -0.0088 C.3     
  24 C24            5.3320     2.0881    -2.0966 C.3     
  25 C25            5.0860     4.5704    -2.2385 C.3     
  26 O26            2.4859     1.8145    -0.4968 O.3     
  27 H27            0.5428     2.0270    -1.2200 H       
  28 H28           -0.2657    -0.1456    -0.5077 H       
  29 H29            1.7719     1.2008     2.5128 H       
  30 H30            1.0510     3.0264     1.2662 H       
  31 H31           -0.5402     2.2737     0.9206 H       
  32 H32           -2.6575     1.2315     4.0335 H       
  33 H33           -1.5297     0.6117     5.2633 H       
  34 H34           -1.9665     2.3371     5.2453 H       
  35 H35            1.5515    -0.5636    -2.1708 H       
  36 H36            2.7771    -0.4338    -0.8815 H       
  37 H37            0.6543    -2.4710    -1.0562 H       
  38 H38            2.9616    -2.7086     0.6515 H       
  39 H39            2.5163    -5.0783    -0.1030 H       
  40 H40            0.9056    -5.7888     0.1602 H       
  41 H41            1.1337    -4.5377    -1.0851 H       
  42 H42            1.2109    -3.5705     3.0775 H       
  43 H43            1.1561    -5.2582     2.5146 H       
  44 H44            2.6601    -4.3181     2.3639 H       
  45 H45           -0.6799    -3.1706    -0.0438 H       
  46 H46           -0.9080    -4.4218     1.2015 H       
  47 H47           -0.5894    -2.7373     1.6803 H       
  48 H48            2.3892     5.5363    -1.1235 H       
  49 H49            1.0474     4.5428    -0.5063 H       
  50 H50            2.5253     4.7448     0.4650 H       
  51 H51            2.6313     2.0982    -3.5647 H       
  52 H52            1.1143     2.8731    -3.0485 H       
  53 H53            2.4561     3.8666    -3.6657 H       
  54 H54            5.0195     2.5710     0.5679 H       
  55 H55            6.3612     3.5645    -0.0493 H       
  56 H56            4.8442     4.3394     0.4668 H       
  57 H57            4.9383     1.9912    -3.1084 H       
  58 H58            6.4161     2.1932    -2.1371 H       
  59 H59            5.0744     1.1997    -1.5199 H       
  60 H60            4.6532     5.4504    -1.7628 H       
  61 H61            6.1702     4.6755    -2.2790 H       
  62 H62            4.6923     4.4735    -3.2502 H       
@<TRIPOS>BOND
   1    1    2 1
   2    1   26 1
   3    1    5 1
   4    1   27 1
   5    2    3 1
   6    2   10 1
   7    2   28 1
   8    3    4 1
   9    3   13 am
  10    4    5 1
  11    4    6 1
  12    4   29 1
  13    5   30 1
  14    5   31 1
  15    6    7 2
  16    6    8 1
  17    8    9 1
  18    9   32 1
  19    9   33 1
  20    9   34 1
  21   10   11 1
  22   10   35 1
  23   10   36 1
  24   11   12 1
  25   11   37 1
  26   12   13 1
  27   12   15 1
  28   12   38 1
  29   13   14 2
  30   15   16 1
  31   15   17 1
  32   15   18 1
  33   16   39 1
  34   16   40 1
  35   16   41 1
  36   17   42 1
  37   17   43 1
  38   17   44 1
  39   18   45 1
  40   18   46 1
  41   18   47 1
  42   19   20 1
  43   19   21 1
  44   19   22 1
  45   19   26 1
  46   20   23 1
  47   20   24 1
  48   20   25 1
  49   21   48 1
  50   21   49 1
  51   21   50 1
  52   22   51 1
  53   22   52 1
  54   22   53 1
  55   23   54 1
  56   23   55 1
  57   23   56 1
  58   24   57 1
  59   24   58 1
  60   24   59 1
  61   25   60 1
  62   25   61 1
  63   25   62 1

#	End of record

