#	Name: ASD01910195
#	Creating user name:	WinNT
#	Creation time:	15. 06. 2019 19:55

#	Modifying user name:	WinNT
#	Modification time:	15. 06. 2019 19:55

#	Program:	/corina/corina34_cracker 3.40 0067  02.08.2006

@<TRIPOS>MOLECULE
ASD01910195
  41   44    0    0    0
SMALL
NO_CHARGES


@<TRIPOS>ATOM
   1 C1            -0.0144     1.3652    -0.1395 C.ar    
   2 C2             0.0062    -0.0164    -0.1513 C.ar    
   3 C3             1.2117    -0.7015    -0.1512 C.ar    
   4 C4             2.4031     0.0051    -0.1397 C.ar    
   5 C5             2.3821     1.4150    -0.1282 C.ar    
   6 C6             1.1702     2.0859    -0.1279 C.ar    
   7 C7             3.8306    -0.3780    -0.1361 C.2     
   8 N8             4.5751     0.7424    -0.1233 N.am    
   9 C9             3.7976     1.8402    -0.1179 C.2     
  10 O10            4.1928     2.9886    -0.1069 O.2     
  11 O11            4.2597    -1.5141    -0.1434 O.2     
  12 C12            5.9767     0.7632    -0.1155 C.ar    
  13 C13            6.6890    -0.4294    -0.1209 C.ar    
  14 C14            8.0716    -0.4146    -0.1133 C.ar    
  15 C15            8.7531     0.7850    -0.0998 C.ar    
  16 C16            8.0463     1.9891    -0.0942 C.ar    
  17 C17            6.6517     1.9737    -0.1081 C.ar    
  18 C18            8.7737     3.2760    -0.0793 C.2     
  19 N19           10.1214     3.2883    -0.0710 N.am    
  20 C20           10.8112     4.5025    -0.1762 C.ar    
  21 C21           10.2933     5.5320    -0.9480 C.ar    
  22 C22           10.9758     6.7298    -1.0499 C.ar    
  23 C23           12.1748     6.9048    -0.3845 C.ar    
  24 C24           12.6975     5.8830     0.3869 C.ar    
  25 C25           12.0171     4.6818     0.4989 C.ar    
  26 O26           12.5298     3.6761     1.2570 O.3     
  27 O27            8.1562     4.3232    -0.0744 O.2     
  28 H28           -0.9597     1.8875    -0.1439 H       
  29 H29           -0.9232    -0.5665    -0.1602 H       
  30 H30            1.2217    -1.7814    -0.1597 H       
  31 H31            1.1480     3.1656    -0.1195 H       
  32 H32            6.1610    -1.3715    -0.1308 H       
  33 H33            8.6198    -1.3451    -0.1176 H       
  34 H34            9.8331     0.7925    -0.0932 H       
  35 H35            6.0995     2.9018    -0.1039 H       
  36 H36           10.6135     2.4561     0.0078 H       
  37 H37            9.3571     5.3977    -1.4695 H       
  38 H38           10.5715     7.5307    -1.6511 H       
  39 H39           12.7049     7.8421    -0.4676 H       
  40 H40           13.6346     6.0229     0.9052 H       
  41 H41           12.2456     3.6960     2.1811 H       
@<TRIPOS>BOND
   1    1    2 ar
   2    1    6 ar
   3    1   28 1
   4    2    3 ar
   5    2   29 1
   6    3    4 ar
   7    3   30 1
   8    4    5 ar
   9    4    7 1
  10    5    6 ar
  11    5    9 1
  12    6   31 1
  13    7    8 am
  14    7   11 2
  15    8    9 am
  16    8   12 1
  17    9   10 2
  18   12   13 ar
  19   12   17 ar
  20   13   14 ar
  21   13   32 1
  22   14   15 ar
  23   14   33 1
  24   15   16 ar
  25   15   34 1
  26   16   17 ar
  27   16   18 1
  28   17   35 1
  29   18   19 am
  30   18   27 2
  31   19   20 1
  32   19   36 1
  33   20   21 ar
  34   20   25 ar
  35   21   22 ar
  36   21   37 1
  37   22   23 ar
  38   22   38 1
  39   23   24 ar
  40   23   39 1
  41   24   25 ar
  42   24   40 1
  43   25   26 1
  44   26   41 1

#	End of record

