#	Name: ASD01810465
#	Creating user name:	WinNT
#	Creation time:	15. 06. 2019 19:24

#	Modifying user name:	WinNT
#	Modification time:	15. 06. 2019 19:24

#	Program:	/corina/corina34_cracker 3.40 0067  02.08.2006

@<TRIPOS>MOLECULE
ASD01810465
  45   48    0    0    0
SMALL
NO_CHARGES


@<TRIPOS>ATOM
   1 C1            -0.0172     1.4143     0.0098 C.ar    
   2 C2             0.0021    -0.0041     0.0020 C.ar    
   3 C3             1.1959     2.1237     0.0020 C.ar    
   4 C4             2.3772     1.4437    -0.0122 C.ar    
   5 C5             2.3916     0.0560    -0.0191 C.ar    
   6 C6             1.2359    -0.6721    -0.0121 C.ar    
   7 C7             3.6877    -0.7248    -0.0367 C.3     
   8 C8             1.1913     3.6302     0.0083 C.3     
   9 C9             1.0784     4.1263     1.4268 C.ar    
  10 O10            3.3058    -2.0870    -0.3180 O.3     
  11 O11            4.5396    -0.2325    -1.0687 O.3     
  12 C12            2.2211     4.3568     2.1704 C.ar    
  13 C13            2.1203     4.8116     3.4709 C.ar    
  14 C14            0.8711     5.0370     4.0308 C.ar    
  15 C15           -0.2739     4.8049     3.2827 C.ar    
  16 C16           -0.1676     4.3556     1.9807 C.ar    
  17 C17           -1.2128    -0.7087     0.0060 C.ar    
  18 C18           -2.3907    -0.0263     0.0165 C.ar    
  19 C19           -2.4101     1.3681     0.0256 C.ar    
  20 C20           -1.2521     2.0838     0.0194 C.ar    
  21 O21            0.7693     5.4839     5.3102 O.3     
  22 O22            1.3041    -2.0796    -0.0221 Du      
  23 H23            2.3062    -2.2043    -0.0980 H       
  24 C24            1.1303    -3.4731    -0.1591 C.3     
  25 C25           -0.5486     5.6940     5.8210 C.3     
  26 H26            3.3106     1.9893    -0.0193 H       
  27 H27            4.1809    -0.6607     0.9268 H       
  28 H28            2.1176     3.9982    -0.4327 H       
  29 H29            0.3432     3.9933    -0.5722 H       
  30 H30            5.3877    -0.6928    -1.1316 H       
  31 H31            3.1933     4.1808     1.7341 H       
  32 H32            3.0131     4.9911     4.0514 H       
  33 H33           -1.2475     4.9797     3.7163 H       
  34 H34           -1.0587     4.1748     1.3978 H       
  35 H35           -1.2129    -1.7882     0.0004 H       
  36 H36           -3.3246    -0.5724     0.0168 H       
  37 H37           -3.3591     1.8877     0.0342 H       
  38 H38           -1.2833     3.1630     0.0282 H       
  39 H39            0.8458    -2.1103     0.8771 H       
  40 H40            0.0677    -3.7125    -0.1181 H       
  41 H41            1.5392    -3.7979    -1.1159 H       
  42 H42            1.6497    -3.9854     0.6507 H       
  43 H43           -1.0612     6.4367     5.2097 H       
  44 H44           -1.1028     4.7558     5.7936 H       
  45 H45           -0.4872     6.0497     6.8495 H       
@<TRIPOS>BOND
   1    1    2 ar
   2    1    3 ar
   3    1   20 ar
   4    2   17 ar
   5    2    6 ar
   6    3    4 ar
   7    3    8 1
   8    4    5 ar
   9    4   26 1
  10    5    6 ar
  11    5    7 1
  12    6   22 1
  13    7   10 1
  14    7   11 1
  15    7   27 1
  16    8    9 1
  17    8   28 1
  18    8   29 1
  19    9   12 ar
  20    9   16 ar
  21   10   23 1
  22   11   30 1
  23   12   13 ar
  24   12   31 1
  25   13   14 ar
  26   13   32 1
  27   14   15 ar
  28   14   21 1
  29   15   16 ar
  30   15   33 1
  31   16   34 1
  32   17   18 ar
  33   17   35 1
  34   18   19 ar
  35   18   36 1
  36   19   20 ar
  37   19   37 1
  38   20   38 1
  39   21   25 1
  40   22   24 1
  41   22   23 1
  42   22   39 1
  43   24   40 1
  44   24   41 1
  45   24   42 1
  46   25   43 1
  47   25   44 1
  48   25   45 1

#	End of record

