#	Name: ASD01913263
#	Creating user name:	WinNT
#	Creation time:	15. 06. 2019 20:01

#	Modifying user name:	WinNT
#	Modification time:	15. 06. 2019 20:01

#	Program:	/corina/corina34_cracker 3.40 0067  02.08.2006

@<TRIPOS>MOLECULE
ASD01913263
  44   47    0    0    0
SMALL
NO_CHARGES


@<TRIPOS>ATOM
   1 C1             0.5070     0.8784     1.0118 C.3     
   2 C2             1.0626    -0.4641     1.4245 C.2     
   3 C3             2.2997    -0.8958     1.0978 C.2     
   4 C4             3.2992    -0.1116     0.2888 C.3     
   5 C5             2.5621     1.0088    -0.4563 C.3     
   6 N6             1.6271     1.6671     0.4677 N.am    
   7 C7             1.2862    -2.4273     2.2787 C.2     
   8 N8             0.4673    -1.4164     2.1457 N.2     
   9 N9             2.4413    -2.1391     1.6360 N.pl3   
  10 C10            1.7901     2.9608     0.8087 C.2     
  11 O11            2.7768     3.5670     0.4394 O.2     
  12 C12            0.7685     3.6428     1.6319 C.ar    
  13 C13            1.1519     4.6022     2.5665 C.ar    
  14 C14            0.1816     5.2409     3.3385 C.ar    
  15 C15           -1.1677     4.9142     3.1693 C.ar    
  16 C16           -1.5390     3.9626     2.2413 C.ar    
  17 C17           -0.5832     3.3305     1.4701 C.ar    
  18 C18           -2.2182     5.6023     4.0024 C.3     
  19 F19           -3.4823     5.1129     3.6562 F       
  20 F20           -1.9764     5.3523     5.3575 F       
  21 F21           -2.1712     6.9806     3.7669 F       
  22 C22            0.5660     6.2281     4.3020 C.1     
  23 C23            0.8811     7.0375     5.0919 C.1     
  24 C24            1.2655     8.0246     6.0554 C.ar    
  25 C25            0.2877     8.6603     6.8252 C.ar    
  26 C26            0.6757     9.6110     7.7516 C.ar    
  27 C27            2.0282     9.8980     7.8811 C.ar    
  28 C28            2.9435     9.2314     7.0872 C.ar    
  29 N29            2.5506     8.3259     6.2150 N.ar    
  30 H30           -0.2579     0.7439     0.2470 H       
  31 H31            0.0820     1.3860     1.8777 H       
  32 H32            4.0471     0.3218     0.9528 H       
  33 H33            3.7847    -0.7709    -0.4307 H       
  34 H34            3.2840     1.7375    -0.8252 H       
  35 H35            2.0084     0.5861    -1.2946 H       
  36 H36            1.0752    -3.3414     2.8137 H       
  37 H37            3.2227    -2.7102     1.5705 H       
  38 H38            2.1954     4.8500     2.6928 H       
  39 H39           -2.5823     3.7139     2.1145 H       
  40 H40           -0.8815     2.5901     0.7427 H       
  41 H41           -0.7559     8.4130     6.6984 H       
  42 H42           -0.0570    10.1193     8.3607 H       
  43 H43            2.3623    10.6358     8.5955 H       
  44 H44            3.9957     9.4534     7.1866 H       
@<TRIPOS>BOND
   1    1    2 1
   2    1    6 1
   3    1   30 1
   4    1   31 1
   5    2    3 2
   6    2    8 1
   7    3    4 1
   8    3    9 1
   9    4    5 1
  10    4   32 1
  11    4   33 1
  12    5    6 1
  13    5   34 1
  14    5   35 1
  15    6   10 am
  16    7    8 2
  17    7    9 1
  18    7   36 1
  19    9   37 1
  20   10   11 2
  21   10   12 1
  22   12   13 ar
  23   12   17 ar
  24   13   14 ar
  25   13   38 1
  26   14   15 ar
  27   14   22 1
  28   15   16 ar
  29   15   18 1
  30   16   17 ar
  31   16   39 1
  32   17   40 1
  33   18   19 1
  34   18   20 1
  35   18   21 1
  36   22   23 3
  37   23   24 1
  38   24   25 ar
  39   24   29 ar
  40   25   26 ar
  41   25   41 1
  42   26   27 ar
  43   26   42 1
  44   27   28 ar
  45   27   43 1
  46   28   29 ar
  47   28   44 1

#	End of record

