#	Name: ASD01000146
#	Creating user name:	WinNT
#	Creation time:	15. 06. 2019 18:54

#	Modifying user name:	WinNT
#	Modification time:	15. 06. 2019 18:54

#	Program:	/corina/corina34_cracker 3.40 0067  02.08.2006

@<TRIPOS>MOLECULE
ASD01000146
  51   54    0    0    0
SMALL
NO_CHARGES


@<TRIPOS>ATOM
   1 C1             0.6684     1.3114     0.0014 C.ar    
   2 C2            -1.6189     2.3420    -0.1698 C.3     
   3 C3            -2.1317     1.0671     0.4257 C.ar    
   4 C4             0.0770    -0.0683     0.0300 C.3     
   5 C5             1.8381     3.8220    -0.0440 C.ar    
   6 C6             0.4659     3.6920    -0.1159 C.ar    
   7 C7            -0.1225     2.4355    -0.0922 C.ar    
   8 C8             2.0475     1.4437     0.0777 C.ar    
   9 C9             2.6314     2.6942     0.0552 C.ar    
  10 C10           -3.4352     1.0339     0.9004 C.ar    
  11 C11           -3.9461    -0.1211     1.4573 C.ar    
  12 C12           -3.1552    -1.2517     1.5424 C.ar    
  13 C13           -1.8588    -1.2166     1.0820 C.ar    
  14 C14           -1.3415    -0.0569     0.5228 C.ar    
  15 C15            0.1086    -0.6450    -1.3619 C.ar    
  16 C16            0.1492    -2.0150    -1.5416 C.ar    
  17 C17            0.1783    -2.5440    -2.8184 C.ar    
  18 C18            0.1663    -1.7030    -3.9155 C.ar    
  19 C19            0.1247    -0.3330    -3.7357 C.ar    
  20 C20            0.0913     0.1959    -2.4590 C.ar    
  21 S21            1.0731    -1.1156     1.1261 S.3     
  22 C22            0.9201    -0.2869     2.7324 C.3     
  23 C23            1.6213    -1.1218     3.8059 C.3     
  24 C24            1.4942    -0.4333     5.1404 C.2     
  25 N25            0.9974    -2.4497     3.8786 N.3     
  26 O26            2.3094     0.5874     5.4493 O.3     
  27 O27            0.6585    -0.8001     5.9322 O.2     
  28 C28            0.1989    -2.2797    -5.3074 C.3     
  29 F29           -1.1093    -2.4966    -5.7531 F       
  30 F30            0.8424    -1.3841    -6.1682 F       
  31 F31            0.8940    -3.4937    -5.2930 F       
  32 H32           -1.9141     2.3883    -1.2180 H       
  33 H33           -2.0622     3.1850     0.3602 H       
  34 H34            2.2908     4.8023    -0.0627 H       
  35 H35           -0.1534     4.5734    -0.1938 H       
  36 H36            2.6678     0.5630     0.1555 H       
  37 H37            3.7056     2.7912     0.1117 H       
  38 H38           -4.0534     1.9169     0.8342 H       
  39 H39           -4.9610    -0.1413     1.8259 H       
  40 H40           -3.5510    -2.1577     1.9772 H       
  41 H41           -1.2415    -2.1003     1.1483 H       
  42 H42            0.1586    -2.6720    -0.6845 H       
  43 H43            0.2107    -3.6143    -2.9589 H       
  44 H44            0.1157     0.3240    -4.5928 H       
  45 H45            0.0551     1.2661    -2.3186 H       
  46 H46            1.3831     0.6984     2.6785 H       
  47 H47           -0.1343    -0.1795     2.9869 H       
  48 H48            2.6757    -1.2292     3.5514 H       
  49 H49            0.0187    -2.3770     4.1132 H       
  50 H50            1.1257    -2.9572     3.0160 H       
  51 H51            2.1900     0.9975     6.3169 H       
@<TRIPOS>BOND
   1    1    4 1
   2    1    8 ar
   3    1    7 ar
   4    2    3 1
   5    2    7 1
   6    2   32 1
   7    2   33 1
   8    3   10 ar
   9    3   14 ar
  10    4   15 1
  11    4   21 1
  12    4   14 1
  13    5    6 ar
  14    5    9 ar
  15    5   34 1
  16    6    7 ar
  17    6   35 1
  18    8    9 ar
  19    8   36 1
  20    9   37 1
  21   10   11 ar
  22   10   38 1
  23   11   12 ar
  24   11   39 1
  25   12   13 ar
  26   12   40 1
  27   13   14 ar
  28   13   41 1
  29   15   16 ar
  30   15   20 ar
  31   16   17 ar
  32   16   42 1
  33   17   18 ar
  34   17   43 1
  35   18   19 ar
  36   18   28 1
  37   19   20 ar
  38   19   44 1
  39   20   45 1
  40   21   22 1
  41   22   23 1
  42   22   46 1
  43   22   47 1
  44   23   24 1
  45   23   25 1
  46   23   48 1
  47   24   26 1
  48   24   27 2
  49   25   49 1
  50   25   50 1
  51   26   51 1
  52   28   29 1
  53   28   30 1
  54   28   31 1

#	End of record

