#	Name: ASD04590115
#	Creating user name:	WinNT
#	Creation time:	15. 06. 2019 20:50

#	Modifying user name:	WinNT
#	Modification time:	15. 06. 2019 20:50

#	Program:	/corina/corina34_cracker 3.40 0067  02.08.2006

@<TRIPOS>MOLECULE
ASD04590115
  36   38    0    0    0
SMALL
NO_CHARGES


@<TRIPOS>ATOM
   1 N1             0.2377     1.4579     0.0693 N.pl3   
   2 N2            -0.1284     0.2287    -0.0013 N.2     
   3 C3             0.9105    -0.5677     0.1661 C.2     
   4 C4             2.0443     0.2625     0.3619 C.2     
   5 C5             1.5756     1.5367     0.2934 C.2     
   6 C6             0.8958    -2.0419     0.1523 C.2     
   7 N7            -0.2753    -2.7034     0.0646 N.am    
   8 O8             1.9402    -2.6611     0.2201 O.2     
   9 N9             3.3685    -0.1452     0.5800 N.3     
  10 C10            3.5029    -0.8285     1.8747 C.3     
  11 C11            4.2918     0.9956     0.4946 C.3     
  12 C12            5.7278     0.4978     0.6788 C.3     
  13 O13            5.8318    -0.1906     1.9281 O.3     
  14 C14            4.9469    -1.3080     2.0451 C.3     
  15 C15           -0.2840    -4.0976    -0.0578 C.ar    
  16 C16            0.7316    -4.7410    -0.7527 C.ar    
  17 C17            0.7210    -6.1168    -0.8724 C.ar    
  18 C18           -0.3017    -6.8547    -0.3004 C.ar    
  19 C19           -1.3155    -6.2151     0.3930 C.ar    
  20 C20           -1.3054    -4.8399     0.5203 C.ar    
  21 F21           -0.3107    -8.2004    -0.4194 F       
  22 H22           -0.3547     2.2198    -0.0276 H       
  23 H23            2.1569     2.4410     0.3969 H       
  24 H24           -1.1120    -2.2131     0.0863 H       
  25 H25            3.2517    -0.1370     2.6790 H       
  26 H26            2.8290    -1.6846     1.9062 H       
  27 H27            4.1938     1.4710    -0.4813 H       
  28 H28            4.0532     1.7162     1.2768 H       
  29 H29            5.9845    -0.1818    -0.1337 H       
  30 H30            6.4110     1.3471     0.6733 H       
  31 H31            5.0652    -1.7646     3.0277 H       
  32 H32            5.1808    -2.0401     1.2722 H       
  33 H33            1.5290    -4.1658    -1.1996 H       
  34 H34            1.5107    -6.6176    -1.4128 H       
  35 H35           -2.1124    -6.7924     0.8380 H       
  36 H36           -2.0960    -4.3415     1.0615 H       
@<TRIPOS>BOND
   1    1    2 1
   2    1    5 1
   3    1   22 1
   4    2    3 2
   5    3    4 1
   6    3    6 1
   7    4    5 2
   8    4    9 1
   9    5   23 1
  10    6    7 am
  11    6    8 2
  12    7   15 1
  13    7   24 1
  14    9   10 1
  15    9   11 1
  16   10   14 1
  17   10   25 1
  18   10   26 1
  19   11   12 1
  20   11   27 1
  21   11   28 1
  22   12   13 1
  23   12   29 1
  24   12   30 1
  25   13   14 1
  26   14   31 1
  27   14   32 1
  28   15   16 ar
  29   15   20 ar
  30   16   17 ar
  31   16   33 1
  32   17   18 ar
  33   17   34 1
  34   18   19 ar
  35   18   21 1
  36   19   20 ar
  37   19   35 1
  38   20   36 1

#	End of record

