#	Name: ASD09116203
#	Creating user name:	WinNT
#	Creation time:	15. 06. 2019 21:21

#	Modifying user name:	WinNT
#	Modification time:	15. 06. 2019 21:21

#	Program:	/corina/corina34_cracker 3.40 0067  02.08.2006

@<TRIPOS>MOLECULE
ASD09116203
  76   82    0    0    0
SMALL
NO_CHARGES


@<TRIPOS>ATOM
   1 N1             0.0065     1.5232    -0.7341 N.2     
   2 N2            -0.0136     0.3814    -1.5512 N.pl3   
   3 C3             1.2538     1.9227    -0.6652 C.2     
   4 N4             2.0168     1.0977    -1.3917 N.2     
   5 C5             1.2666     0.1619    -1.9330 C.2     
   6 N6             1.7113     3.0300     0.0498 N.pl3   
   7 C7             3.0749     3.2964     0.1220 C.ar    
   8 C8             3.5216     4.6116     0.2171 C.ar    
   9 C9             5.7909     3.8271     0.2664 C.ar    
  10 C10            5.3389     2.5072     0.1771 C.ar    
  11 C11            3.9896     2.2469     0.1049 C.ar    
  12 C12           -1.1322    -0.3775    -1.9004 C.ar    
  13 N13           -1.1265    -1.0907    -3.0166 N.ar    
  14 N14           -2.1334    -1.7980    -3.3887 N.ar    
  15 C15           -3.2446    -1.8541    -2.6722 C.ar    
  16 C16           -3.3340    -1.1505    -1.4677 C.ar    
  17 C17           -2.2555    -0.3891    -1.0697 C.ar    
  18 C18           -4.4256    -2.6247    -3.1255 C.ar    
  19 C19           -5.6767    -2.0058    -3.1222 C.ar    
  20 C20           -5.7847    -0.5622    -2.7138 C.3     
  21 C21           -5.6974    -0.4043    -1.1982 C.3     
  22 C22           -4.5732    -1.2653    -0.6285 C.3     
  23 C23           -4.3034    -3.9445    -3.5456 C.ar    
  24 C24           -5.4279    -4.6432    -3.9404 C.ar    
  25 C25           -6.6688    -4.0329    -3.9159 C.ar    
  26 C26           -6.7934    -2.7165    -3.5066 C.ar    
  27 N27            1.7077    -0.8641    -2.7468 N.pl3   
  28 C28            4.8697     4.8784     0.2887 C.ar    
  29 C29            7.2368     4.1095     0.3444 C.2     
  30 C30            9.2251     5.3263    -0.4175 C.3     
  31 N31            7.7734     5.0902    -0.4084 N.am    
  32 C32            9.7029     5.3646    -1.8730 C.3     
  33 N33            8.9088     6.3492    -2.6199 N.3     
  34 C34            7.4914     5.9661    -2.6660 C.3     
  35 C35            6.9229     5.9524    -1.2430 C.3     
  36 O36            7.9443     3.4575     1.0879 O.2     
  37 C37            9.4464     6.5414    -3.9735 C.3     
  38 C38            8.6196     7.6004    -4.7235 C.3     
  39 C39           10.8893     7.0816    -3.8972 C.3     
  40 C40           10.9853     8.0769    -5.0800 C.3     
  41 C41            9.5890     8.7473    -5.0768 C.3     
  42 H42            1.0787     3.6141     0.4964 H       
  43 H43            2.8094     5.4233     0.2342 H       
  44 H44            6.0482     1.6929     0.1594 H       
  45 H45            3.6398     1.2275     0.0352 H       
  46 H46           -2.2814     0.1837    -0.1545 H       
  47 H47           -4.9753     0.0012    -3.1782 H       
  48 H48           -6.7387    -0.1643    -3.0594 H       
  49 H49           -5.5062     0.6413    -0.9568 H       
  50 H50           -6.6439    -0.7079    -0.7508 H       
  51 H51           -4.8955    -2.3064    -0.6056 H       
  52 H52           -4.3502    -0.9376     0.3869 H       
  53 H53           -3.3344    -4.4209    -3.5633 H       
  54 H54           -5.3378    -5.6680    -4.2693 H       
  55 H55           -7.5455    -4.5865    -4.2179 H       
  56 H56           -7.7655    -2.2462    -3.4887 H       
  57 H57            2.6498    -0.9390    -2.9653 H       
  58 H58            1.0752    -1.5094    -3.0996 H       
  59 H59            5.2157     5.8988     0.3617 H       
  60 H60            9.4442     6.2788     0.0650 H       
  61 H61            9.7306     4.5192     0.1127 H       
  62 H62           10.7551     5.6477    -1.9031 H       
  63 H63            9.5778     4.3797    -2.3229 H       
  64 H64            6.9396     6.6854    -3.2711 H       
  65 H65            7.3971     4.9728    -3.1048 H       
  66 H66            5.9064     5.5593    -1.2585 H       
  67 H67            6.9207     6.9651    -0.8398 H       
  68 H68            9.4284     5.5982    -4.5195 H       
  69 H69            8.2011     7.1714    -5.6340 H       
  70 H70            7.8195     7.9718    -4.0832 H       
  71 H71           11.0543     7.5966    -2.9508 H       
  72 H72           11.6072     6.2709    -4.0216 H       
  73 H73           11.7682     8.8142    -4.9019 H       
  74 H74           11.1576     7.5477    -6.0172 H       
  75 H75            9.3580     9.1522    -6.0621 H       
  76 H76            9.5440     9.5313    -4.3210 H       
@<TRIPOS>BOND
   1    1    2 1
   2    1    3 2
   3    2   12 1
   4    2    5 1
   5    3    4 1
   6    3    6 1
   7    4    5 2
   8    5   27 1
   9    6    7 1
  10    6   42 1
  11    7    8 ar
  12    7   11 ar
  13    8   28 ar
  14    8   43 1
  15    9   10 ar
  16    9   28 ar
  17    9   29 1
  18   10   11 ar
  19   10   44 1
  20   11   45 1
  21   12   13 ar
  22   12   17 ar
  23   13   14 ar
  24   14   15 ar
  25   15   16 ar
  26   15   18 1
  27   16   17 ar
  28   16   22 1
  29   17   46 1
  30   18   19 ar
  31   18   23 ar
  32   19   20 1
  33   19   26 ar
  34   20   21 1
  35   20   47 1
  36   20   48 1
  37   21   22 1
  38   21   49 1
  39   21   50 1
  40   22   51 1
  41   22   52 1
  42   23   24 ar
  43   23   53 1
  44   24   25 ar
  45   24   54 1
  46   25   26 ar
  47   25   55 1
  48   26   56 1
  49   27   57 1
  50   27   58 1
  51   28   59 1
  52   29   36 2
  53   29   31 am
  54   30   31 1
  55   30   32 1
  56   30   60 1
  57   30   61 1
  58   31   35 1
  59   32   33 1
  60   32   62 1
  61   32   63 1
  62   33   34 1
  63   33   37 1
  64   34   35 1
  65   34   64 1
  66   34   65 1
  67   35   66 1
  68   35   67 1
  69   37   38 1
  70   37   39 1
  71   37   68 1
  72   38   41 1
  73   38   69 1
  74   38   70 1
  75   39   40 1
  76   39   71 1
  77   39   72 1
  78   40   41 1
  79   40   73 1
  80   40   74 1
  81   41   75 1
  82   41   76 1

#	End of record

