#	Name: ASD01913251
#	Creating user name:	WinNT
#	Creation time:	15. 06. 2019 20:01

#	Modifying user name:	WinNT
#	Modification time:	15. 06. 2019 20:01

#	Program:	/corina/corina34_cracker 3.40 0067  02.08.2006

@<TRIPOS>MOLECULE
ASD01913251
  46   49    0    0    0
SMALL
NO_CHARGES


@<TRIPOS>ATOM
   1 C1             3.0203     5.0957     0.6133 C.3     
   2 C2             3.4000     5.8007    -0.6687 C.2     
   3 C3             3.7263     5.1852    -1.8206 C.2     
   4 C4             3.7424     3.6721    -1.9750 C.3     
   5 C5             3.8160     3.0274    -0.5888 C.3     
   6 N6             2.8299     3.6703     0.2937 N.am    
   7 S7             3.4907     7.5392    -0.9138 S.3     
   8 C8             3.9661     7.2927    -2.5370 C.2     
   9 N9             4.0263     6.0336    -2.7945 N.2     
  10 C10            1.7871     2.9781     0.7938 C.2     
  11 O11            1.5876     1.8347     0.4330 O.2     
  12 C12            0.8859     3.6098     1.7813 C.ar    
  13 C13            1.3957     4.5050     2.7190 C.ar    
  14 C14            0.5383     5.0966     3.6466 C.ar    
  15 C15           -0.8255     4.7874     3.6289 C.ar    
  16 C16           -1.3224     3.8994     2.6965 C.ar    
  17 C17           -0.4792     3.3145     1.7721 C.ar    
  18 C18            1.0532     6.0177     4.6147 C.1     
  19 C19            1.4752     6.7729     5.4083 C.1     
  20 C20            1.9901     7.6940     6.3764 C.ar    
  21 C21            1.1250     8.2827     7.3025 C.ar    
  22 C22            1.6383     9.1697     8.2310 C.ar    
  23 C23            2.9997     9.4419     8.2065 C.ar    
  24 C24            3.7995     8.8242     7.2625 C.ar    
  25 N25            3.2887     7.9787     6.3911 N.ar    
  26 C26           -1.7542     5.4247     4.6301 C.3     
  27 C27            4.2700     8.3907    -3.5234 C.3     
  28 H28            3.8180     5.2073     1.3476 H       
  29 H29            2.0934     5.5143     1.0056 H       
  30 H30            2.8324     3.3478    -2.4798 H       
  31 H31            4.6116     3.3749    -2.5617 H       
  32 H32            3.5935     1.9634    -0.6695 H       
  33 H33            4.8164     3.1615    -0.1773 H       
  34 H34            2.4499     4.7396     2.7280 H       
  35 H35           -2.3764     3.6640     2.6870 H       
  36 H36           -0.8759     2.6240     1.0425 H       
  37 H37            0.0707     8.0486     7.2931 H       
  38 H38            0.9944     9.6407     8.9590 H       
  39 H39            3.4303    10.1305     8.9185 H       
  40 H40            4.8586     9.0347     7.2421 H       
  41 H41           -2.1459     6.3559     4.2209 H       
  42 H42           -2.5798     4.7457     4.8433 H       
  43 H43           -1.2085     5.6333     5.5503 H       
  44 H44            4.1399     9.3592    -3.0405 H       
  45 H45            5.2987     8.2930    -3.8703 H       
  46 H46            3.5914     8.3142    -4.3729 H       
@<TRIPOS>BOND
   1    1    2 1
   2    1    6 1
   3    1   28 1
   4    1   29 1
   5    2    3 2
   6    2    7 1
   7    3    4 1
   8    3    9 1
   9    4    5 1
  10    4   30 1
  11    4   31 1
  12    5    6 1
  13    5   32 1
  14    5   33 1
  15    6   10 am
  16    7    8 1
  17    8    9 2
  18    8   27 1
  19   10   11 2
  20   10   12 1
  21   12   13 ar
  22   12   17 ar
  23   13   14 ar
  24   13   34 1
  25   14   15 ar
  26   14   18 1
  27   15   16 ar
  28   15   26 1
  29   16   17 ar
  30   16   35 1
  31   17   36 1
  32   18   19 3
  33   19   20 1
  34   20   21 ar
  35   20   25 ar
  36   21   22 ar
  37   21   37 1
  38   22   23 ar
  39   22   38 1
  40   23   24 ar
  41   23   39 1
  42   24   25 ar
  43   24   40 1
  44   26   41 1
  45   26   42 1
  46   26   43 1
  47   27   44 1
  48   27   45 1
  49   27   46 1

#	End of record

