#	Name: ASD01920023
#	Creating user name:	WinNT
#	Creation time:	15. 06. 2019 20:11

#	Modifying user name:	WinNT
#	Modification time:	15. 06. 2019 20:11

#	Program:	/corina/corina34_cracker 3.40 0067  02.08.2006

@<TRIPOS>MOLECULE
ASD01920023
  41   44    0    0    0
SMALL
NO_CHARGES


@<TRIPOS>ATOM
   1 N1            -0.0175     1.3626     0.1055 N.am    
   2 C2             0.0022    -0.0037    -0.0000 C.2     
   3 C3            -1.1522    -0.7275    -0.0891 C.2     
   4 C4            -2.3851    -0.0664    -0.0723 C.2     
   5 C5            -2.3958     1.3364     0.0369 C.2     
   6 C6            -1.1848     2.0416     0.1312 C.2     
   7 O7            -3.6723    -0.4337    -0.1372 O.3     
   8 N8            -4.4362     0.5030    -0.0857 N.2     
   9 C9            -3.8259     1.6593     0.0217 C.2     
  10 C10           -4.4482     3.0029     0.1094 C.ar    
  11 O11           -1.1869     3.2570     0.2260 O.2     
  12 C12            1.2465     2.0973     0.1980 C.3     
  13 C13            1.2997    -0.7081    -0.0184 C.ar    
  14 C14           -5.6181     3.2793    -0.5958 C.ar    
  15 C15           -6.1930     4.5310    -0.5102 C.ar    
  16 C16           -5.6100     5.5105     0.2735 C.ar    
  17 C17           -4.4489     5.2419     0.9756 C.ar    
  18 C18           -3.8684     3.9919     0.9019 C.ar    
  19 C19            1.5161    -1.7994     0.8262 C.ar    
  20 C20            2.7284    -2.4543     0.8063 C.ar    
  21 C21            3.7349    -2.0309    -0.0520 C.ar    
  22 C22            3.5241    -0.9451    -0.8944 C.ar    
  23 C23            2.3125    -0.2883    -0.8847 C.ar    
  24 Br24           4.8989    -0.3733    -2.0601 Br      
  25 O25            4.9283    -2.6789    -0.0681 O.3     
  26 C26            5.0776    -3.7858     0.8233 C.3     
  27 H27           -1.1137    -1.8036    -0.1723 H       
  28 H28            1.6348     2.2800    -0.8040 H       
  29 H29            1.0775     3.0493     0.7013 H       
  30 H30            1.9678     1.5094     0.7656 H       
  31 H31           -6.0737     2.5155    -1.2085 H       
  32 H32           -7.0995     4.7463    -1.0562 H       
  33 H33           -6.0629     6.4889     0.3371 H       
  34 H34           -3.9978     6.0105     1.5856 H       
  35 H35           -2.9618     3.7832     1.4505 H       
  36 H36            0.7342    -2.1293     1.4942 H       
  37 H37            2.8963    -3.2980     1.4593 H       
  38 H38            2.1492     0.5551    -1.5393 H       
  39 H39            4.9426    -3.4461     1.8502 H       
  40 H40            4.3297    -4.5436     0.5900 H       
  41 H41            6.0744    -4.2119     0.7097 H       
@<TRIPOS>BOND
   1    1    2 1
   2    1   12 1
   3    1    6 am
   4    2    3 2
   5    2   13 1
   6    3    4 1
   7    3   27 1
   8    4    5 2
   9    4    7 1
  10    5    6 1
  11    5    9 1
  12    6   11 2
  13    7    8 1
  14    8    9 2
  15    9   10 1
  16   10   14 ar
  17   10   18 ar
  18   12   28 1
  19   12   29 1
  20   12   30 1
  21   13   19 ar
  22   13   23 ar
  23   14   15 ar
  24   14   31 1
  25   15   16 ar
  26   15   32 1
  27   16   17 ar
  28   16   33 1
  29   17   18 ar
  30   17   34 1
  31   18   35 1
  32   19   20 ar
  33   19   36 1
  34   20   21 ar
  35   20   37 1
  36   21   22 ar
  37   21   25 1
  38   22   23 ar
  39   22   24 1
  40   23   38 1
  41   25   26 1
  42   26   39 1
  43   26   40 1
  44   26   41 1

#	End of record

