#	Name: ASD01208019
#	Creating user name:	WinNT
#	Creation time:	15. 06. 2019 19:09

#	Modifying user name:	WinNT
#	Modification time:	15. 06. 2019 19:09

#	Program:	/corina/corina34_cracker 3.40 0067  02.08.2006

@<TRIPOS>MOLECULE
ASD01208019
  58   60    0    0    0
SMALL
NO_CHARGES


@<TRIPOS>ATOM
   1 C1            -0.0842     1.4339     0.0277 C.ar    
   2 C2             0.0186     0.0511    -0.0130 C.ar    
   3 C3            -1.1245    -0.7351     0.0266 C.ar    
   4 C4            -2.3732    -0.1413     0.1070 C.ar    
   5 C5            -2.4809     1.2494     0.1482 C.ar    
   6 C6            -1.3289     2.0357     0.1139 C.ar    
   7 C7            -3.8115     1.8876     0.2340 C.2     
   8 C8            -4.0544     3.2433     0.2809 C.2     
   9 N9            -5.0088     1.2351     0.2744 N.pl3   
  10 C10           -6.0156     2.1710     0.3524 C.2     
  11 C11           -5.4343     3.4231     0.3572 C.2     
  12 O12            1.0383     2.1991    -0.0114 O.3     
  13 C13            0.8562     3.6143    -0.0905 C.3     
  14 C14            2.0902     4.2522    -0.7317 C.3     
  15 O15            3.2213     4.0637     0.1211 O.3     
  16 C16            0.6610     4.1828     1.3164 C.3     
  17 O17           -1.0185    -2.0892    -0.0140 O.3     
  18 C18           -1.4875    -2.7331    -1.1148 C.ar    
  19 C19           -1.9382    -2.0050    -2.2066 C.ar    
  20 C20           -1.5112    -4.1200    -1.1513 C.ar    
  21 C21           -1.9881    -4.7722    -2.2718 C.ar    
  22 C22           -2.4416    -4.0441    -3.3564 C.ar    
  23 C23           -2.4141    -2.6621    -3.3246 C.ar    
  24 S24           -3.0487    -4.8791    -4.7843 S.o2    
  25 C25           -4.8231    -5.0845    -4.4683 C.3     
  26 O26           -2.8344    -3.9591    -5.8458 O.2     
  27 O27           -2.3891    -6.1376    -4.7612 O.2     
  28 C28           -7.4525     1.8877     0.4153 C.2     
  29 O29           -8.2510     2.8038     0.4824 O.2     
  30 N30           -7.8893     0.6128     0.3988 N.am    
  31 C31           -9.3253     0.3297     0.4616 C.3     
  32 C32           -9.5488    -1.1835     0.4274 C.3     
  33 Cl33         -11.3161    -1.5319     0.5047 Cl      
  34 H34            0.9908    -0.4150    -0.0761 H       
  35 H35           -3.2623    -0.7537     0.1375 H       
  36 H36           -1.4079     3.1123     0.1455 H       
  37 H37           -3.3097     4.0253     0.2621 H       
  38 H38           -5.1304     0.2730     0.2519 H       
  39 H39           -5.9536     4.3686     0.4104 H       
  40 H40           -0.0228     3.8342    -0.6965 H       
  41 H41            2.2811     3.7839    -1.6973 H       
  42 H42            1.9158     5.3188    -0.8733 H       
  43 H43            4.0412     4.4436    -0.2232 H       
  44 H44            1.5399     3.9629     1.9224 H       
  45 H45            0.5221     5.2623     1.2561 H       
  46 H46           -0.2182     3.7284     1.7732 H       
  47 H47           -1.9173    -0.9255    -2.1821 H       
  48 H48           -1.1568    -4.6891    -0.3046 H       
  49 H49           -2.0064    -5.8516    -2.3009 H       
  50 H50           -2.7693    -2.0957    -4.1729 H       
  51 H51           -5.2854    -4.1055    -4.3421 H       
  52 H52           -5.2851    -5.5986    -5.3111 H       
  53 H53           -4.9650    -5.6729    -3.5618 H       
  54 H54           -7.2529    -0.1173     0.3453 H       
  55 H55           -9.7358     0.7368     1.3857 H       
  56 H56           -9.8241     0.7900    -0.3913 H       
  57 H57           -9.1383    -1.5906    -0.4967 H       
  58 H58           -9.0501    -1.6438     1.2803 H       
@<TRIPOS>BOND
   1    1    2 ar
   2    1   12 1
   3    1    6 ar
   4    2    3 ar
   5    2   34 1
   6    3    4 ar
   7    3   17 1
   8    4    5 ar
   9    4   35 1
  10    5    6 ar
  11    5    7 1
  12    6   36 1
  13    7    8 2
  14    7    9 1
  15    8   11 1
  16    8   37 1
  17    9   10 1
  18    9   38 1
  19   10   11 2
  20   10   28 1
  21   11   39 1
  22   12   13 1
  23   13   14 1
  24   13   16 1
  25   13   40 1
  26   14   15 1
  27   14   41 1
  28   14   42 1
  29   15   43 1
  30   16   44 1
  31   16   45 1
  32   16   46 1
  33   17   18 1
  34   18   19 ar
  35   18   20 ar
  36   19   23 ar
  37   19   47 1
  38   20   21 ar
  39   20   48 1
  40   21   22 ar
  41   21   49 1
  42   22   23 ar
  43   22   24 1
  44   23   50 1
  45   24   25 1
  46   24   26 2
  47   24   27 2
  48   25   51 1
  49   25   52 1
  50   25   53 1
  51   28   29 2
  52   28   30 am
  53   30   31 1
  54   30   54 1
  55   31   32 1
  56   31   55 1
  57   31   56 1
  58   32   33 1
  59   32   57 1
  60   32   58 1

#	End of record

