#	Name: ASD00731057
#	Creating user name:	WinNT
#	Creation time:	15. 06. 2019 18:37

#	Modifying user name:	WinNT
#	Modification time:	15. 06. 2019 18:37

#	Program:	/corina/corina34_cracker 3.40 0067  02.08.2006

@<TRIPOS>MOLECULE
ASD00731057
 265  264    0    0    0
SMALL
NO_CHARGES


@<TRIPOS>ATOM
   1 C1            -1.7064     1.0027    -1.2438 C.2     
   2 O2            -1.7995    -0.1685    -0.9429 O.2     
   3 N3             0.6789     0.6146    -1.4972 N.3     
   4 C4            -0.4209     1.5312    -1.8262 C.3     
   5 C5            -0.5566     1.6402    -3.3463 C.3     
   6 C6             0.7007     2.2924    -3.9250 C.3     
   7 C7             0.5650     2.4015    -5.4451 C.3     
   8 N8             1.7688     3.0260    -5.9992 N.pl3   
   9 C9             1.8758     3.2295    -7.3543 C.2     
  10 N10            0.9185     2.8441    -8.1479 N.2     
  11 N11            2.9991     3.8432    -7.8741 N.am    
  12 C12           -5.1620     2.0579    -1.2660 C.2     
  13 O13           -4.9116     2.9687    -2.0266 O.2     
  14 N14           -2.7545     1.8304    -1.0623 N.am    
  15 C15           -4.0406     1.2953    -0.6087 C.3     
  16 C16           -4.1464     1.4413     0.9106 C.3     
  17 C17           -3.8860     2.8972     1.3024 C.3     
  18 C18           -5.0279     3.7759     0.7877 C.3     
  19 C19           -3.1098     0.5390     1.5831 C.3     
  20 C20           -8.7658     2.4159    -0.8665 C.2     
  21 O21           -8.8659     1.6500     0.0686 O.2     
  22 N22           -6.4430     1.7277    -1.0085 N.am    
  23 C23           -7.5304     2.3945    -1.7292 C.3     
  24 C24           -7.8255     1.6344    -3.0238 C.3     
  25 C25           -8.9372     2.3503    -3.7934 C.3     
  26 C26           -8.4294     3.7107    -4.2753 C.3     
  27 C27           -9.3496     1.5036    -4.9992 C.3     
  28 C28          -12.1022     3.9042    -0.9960 C.2     
  29 O29          -11.9986     4.1703    -2.1748 O.2     
  30 N30           -9.7595     3.2863    -1.1340 N.am    
  31 C31          -10.9115     3.3819    -0.2341 C.3     
  32 C32          -10.5829     4.3367     0.9154 C.3     
  33 C33           -9.4550     3.7451     1.7632 C.3     
  34 S34           -9.0654     4.8771     3.1261 S.3     
  35 C35           -7.7300     4.0168     4.0020 C.3     
  36 C36          -15.3942     5.2510    -0.1525 C.2     
  37 O37          -15.1334     5.2982     1.0310 O.2     
  38 N38          -13.2821     4.0755    -0.3676 N.am    
  39 C39          -14.4396     4.5832    -1.1084 C.3     
  40 C40          -15.1476     3.4208    -1.8074 C.3     
  41 C41          -14.1457     2.6662    -2.6836 C.3     
  42 O42          -15.6865     2.5323    -0.8266 O.3     
  43 C43          -18.8575     6.4159    -0.2611 C.2     
  44 O44          -19.0547     5.9034    -1.3425 O.2     
  45 N45          -16.5378     5.7958    -0.6128 N.am    
  46 C46          -17.4659     6.4450     0.3165 C.3     
  47 C47          -17.0352     7.8965     0.5365 C.3     
  48 C48          -15.6753     7.9244     1.2371 C.3     
  49 C49          -15.2446     9.3759     1.4571 C.3     
  50 C50          -13.8847     9.4038     2.1577 C.3     
  51 N51          -13.4712    10.7975     2.3690 N.3     
  52 C52          -22.0682     8.0138     0.3789 C.2     
  53 O53          -21.7306     8.6362     1.3636 O.2     
  54 N54          -19.8829     6.9595     0.4241 N.am    
  55 C55          -21.2512     6.8353    -0.0844 C.3     
  56 C56          -21.8761     5.5424     0.4436 C.3     
  57 C57          -23.2461     5.3359    -0.2056 C.3     
  58 C58          -23.0709     5.1297    -1.7115 C.3     
  59 C59          -23.9183     4.1036     0.4030 C.3     
  60 C60          -25.4272     9.2775    -0.3165 C.2     
  61 O61          -25.6898     8.3414    -1.0415 O.2     
  62 N62          -23.1740     8.3763    -0.3010 N.am    
  63 C63          -24.0250     9.4555     0.2063 C.3     
  64 C64          -23.4732    10.8033    -0.2624 C.3     
  65 C65          -22.0999    11.0397     0.3694 C.3     
  66 C66          -21.5480    12.3875    -0.0994 C.3     
  67 N67          -20.2331    12.6139     0.5056 N.pl3   
  68 C68          -19.5385    13.7675     0.2287 C.2     
  69 N69          -20.0498    14.6599    -0.5720 N.2     
  70 N70          -18.3045    13.9799     0.7965 N.pl3   
  71 C71          -28.4528    11.3198    -0.5102 C.2     
  72 O72          -27.8708    12.3169    -0.1390 O.2     
  73 N73          -26.3893    10.1587     0.0216 N.am    
  74 C74          -27.7524     9.9857    -0.4867 C.3     
  75 C75          -28.5180     9.0237     0.4240 C.3     
  76 C76          -31.8965    12.4888    -0.8818 C.2     
  77 O77          -32.3450    11.3643    -0.8092 O.2     
  78 N78          -29.7261    11.4049    -0.9438 N.am    
  79 C79          -30.4070    12.7018    -0.9668 C.3     
  80 C80          -30.0697    13.4320    -2.2683 C.3     
  81 O81          -30.6053    12.7042    -3.3753 O.3     
  82 C82          -34.8897    14.5167    -1.4216 C.2     
  83 O83          -34.2504    15.4371    -1.8853 O.2     
  84 N84          -32.7300    13.5478    -0.8864 N.am    
  85 C85          -34.1780    13.3407    -0.8038 C.3     
  86 C86          -34.5913    13.2078     0.6633 C.3     
  87 C87          -33.7770    12.0934     1.3236 C.3     
  88 O88          -34.3466    14.4420     1.3408 O.3     
  89 C89          -38.3095    15.8073    -1.4681 C.2     
  90 O90          -38.7430    14.9248    -0.7581 O.2     
  91 N91          -36.2366    14.5455    -1.4589 N.am    
  92 C92          -36.9285    15.6886    -2.0595 C.3     
  93 C93          -37.0373    15.4820    -3.5716 C.3     
  94 C94          -35.6348    15.3795    -4.1745 C.3     
  95 O95          -37.7590    14.2776    -3.8370 O.3     
  96 C96          -41.2447    17.9402    -1.9133 C.2     
  97 O97          -40.8347    18.3807    -2.9610 O.2     
  98 N98          -39.0628    16.8942    -1.7282 N.am    
  99 C99          -40.3594    17.0620    -1.0671 C.3     
 100 C100         -40.1534    17.7135     0.3018 C.3     
 101 O101         -39.6437    19.0372     0.1275 O.3     
 102 O102         -42.4888    18.2330    -1.5030 O.3     
 103 C103           4.0453     4.1244    -7.0723 C.2     
 104 O104           4.0516     3.7337    -5.9244 O.2     
 105 C105          20.7733    11.8426    -3.6381 C.3     
 106 C106          19.5936    11.0305    -3.1000 C.3     
 107 C107          18.5495    10.8543    -4.2044 C.3     
 108 C108          17.3699    10.0421    -3.6663 C.3     
 109 C109          16.3258     9.8660    -4.7708 C.3     
 110 C110          15.1461     9.0538    -4.2326 C.3     
 111 C111          14.1021     8.8776    -5.3371 C.3     
 112 C112          12.9224     8.0655    -4.7989 C.3     
 113 C113          11.8784     7.8893    -5.9034 C.3     
 114 C114          10.6987     7.0771    -5.3652 C.3     
 115 C115           9.6547     6.9010    -6.4697 C.3     
 116 C116           8.4750     6.0888    -5.9315 C.3     
 117 C117           7.4310     5.9127    -7.0360 C.3     
 118 C118           6.2513     5.1005    -6.4979 C.3     
 119 C119           5.2073     4.9243    -7.6023 C.3     
 120 H120           0.8309     0.5751    -0.5005 H       
 121 H121           0.5075    -0.3057    -1.8736 H       
 122 H122          -0.2106     2.5158    -1.4086 H       
 123 H123          -0.6784     0.6445    -3.7725 H       
 124 H124          -1.4270     2.2490    -3.5906 H       
 125 H125           0.8225     3.2882    -3.4987 H       
 126 H126           1.5711     1.6836    -3.6806 H       
 127 H127           0.4432     1.4057    -5.8713 H       
 128 H128          -0.3055     3.0103    -5.6894 H       
 129 H129           2.4904     3.2958    -5.4098 H       
 130 H130           0.9600     3.0521    -9.0945 H       
 131 H131           3.0349     4.0716    -8.8161 H       
 132 H132          -2.6572     2.7805    -1.2321 H       
 133 H133          -4.1110     0.2415    -0.8782 H       
 134 H134          -5.1457     1.1510     1.2348 H       
 135 H135          -3.8275     2.9765     2.3879 H       
 136 H136          -2.9455     3.2292     0.8626 H       
 137 H137          -4.9488     3.8773    -0.2947 H       
 138 H138          -5.9830     3.3155     1.0407 H       
 139 H139          -4.9654     4.7608     1.2505 H       
 140 H140          -2.1149     0.7937     1.2179 H       
 141 H141          -3.1485     0.6832     2.6629 H       
 142 H142          -3.3276    -0.5027     1.3477 H       
 143 H143          -6.6451     1.0486    -0.3459 H       
 144 H144          -7.2355     3.4165    -1.9671 H       
 145 H145          -6.9249     1.5973    -3.6367 H       
 146 H146          -8.1443     0.6198    -2.7848 H       
 147 H147          -9.7972     2.4944    -3.1394 H       
 148 H148          -7.5075     3.5749    -4.8408 H       
 149 H149          -9.1819     4.1744    -4.9131 H       
 150 H150          -8.2369     4.3521    -3.4153 H       
 151 H151          -9.7114     0.5344    -4.6559 H       
 152 H152         -10.1417     2.0137    -5.5475 H       
 153 H153          -8.4896     1.3595    -5.6532 H       
 154 H154          -9.7118     3.8494    -1.9224 H       
 155 H155         -11.1416     2.3952     0.1677 H       
 156 H156         -10.2669     5.2980     0.5102 H       
 157 H157         -11.4682     4.4771     1.5355 H       
 158 H158          -9.7710     2.7838     2.1684 H       
 159 H159          -8.5697     3.6047     1.1431 H       
 160 H160          -8.0891     3.0487     4.3512 H       
 161 H161          -6.8878     3.8696     3.3259 H       
 162 H162          -7.4106     4.6152     4.8553 H       
 163 H163         -13.3649     3.8627     0.5751 H       
 164 H164         -14.1060     5.3060    -1.8530 H       
 165 H165         -15.9546     3.8081    -2.4293 H       
 166 H166         -14.6501     1.8381    -3.1816 H       
 167 H167         -13.7346     3.3440    -3.4317 H       
 168 H168         -13.3387     2.2789    -2.0616 H       
 169 H169         -16.1506     1.7701    -1.1991 H       
 170 H170         -16.7464     5.7580    -1.5593 H       
 171 H171         -17.4566     5.9149     1.2689 H       
 172 H172         -16.9586     8.4026    -0.4258 H       
 173 H173         -17.7738     8.4046     1.1566 H       
 174 H174         -15.7518     7.4182     2.1994 H       
 175 H175         -14.9367     7.4163     0.6171 H       
 176 H176         -15.1680     9.8821     0.4948 H       
 177 H177         -15.9832     9.8840     2.0772 H       
 178 H178         -13.9612     8.8976     3.1200 H       
 179 H179         -13.1461     8.8957     1.5376 H       
 180 H180         -14.1708    11.3077     2.8868 H       
 181 H181         -12.5751    10.8427     2.8305 H       
 182 H182         -19.7150     7.4330     1.2539 H       
 183 H183         -21.2332     6.8116    -1.1740 H       
 184 H184         -21.2283     4.7001     0.2008 H       
 185 H185         -21.9932     5.6107     1.5252 H       
 186 H186         -23.8679     6.2135    -0.0289 H       
 187 H187         -22.5110     4.2117    -1.8899 H       
 188 H188         -24.0502     5.0557    -2.1844 H       
 189 H189         -22.5268     5.9749    -2.1331 H       
 190 H190         -24.0431     4.2504     1.4759 H       
 191 H191         -24.8943     3.9564    -0.0595 H       
 192 H192         -23.2965     3.2260     0.2263 H       
 193 H193         -23.4065     7.9226    -1.1262 H       
 194 H194         -24.0372     9.4269     1.2959 H       
 195 H195         -23.3777    10.7990    -1.3482 H       
 196 H196         -24.1538    11.5994     0.0393 H       
 197 H197         -22.1954    11.0440     1.4552 H       
 198 H198         -21.4192    10.2436     0.0677 H       
 199 H199         -21.4526    12.3832    -1.1852 H       
 200 H200         -22.2287    13.1836     0.2024 H       
 201 H201         -19.8526    11.9498     1.1015 H       
 202 H202         -19.5596    15.4738    -0.7673 H       
 203 H203         -17.9240    13.3158     1.3924 H       
 204 H204         -17.8144    14.7939     0.6011 H       
 205 H205         -26.1793    10.9074     0.6014 H       
 206 H206         -27.7145     9.5773    -1.4966 H       
 207 H207         -28.5559     9.4321     1.4339 H       
 208 H208         -29.5322     8.8950     0.0459 H       
 209 H209         -28.0114     8.0588     0.4411 H       
 210 H210         -30.1917    10.6074    -1.2407 H       
 211 H211         -30.0766    13.3007    -0.1180 H       
 212 H212         -30.5032    14.4318    -2.2468 H       
 213 H213         -28.9873    13.5075    -2.3725 H       
 214 H214         -30.4291    13.1101    -4.2351 H       
 215 H215         -32.3713    14.4472    -0.9445 H       
 216 H216         -34.4461    12.4308    -1.3407 H       
 217 H217         -35.6524    12.9656     0.7213 H       
 218 H218         -34.0714    11.9988     2.3688 H       
 219 H219         -33.9635    11.1520     0.8068 H       
 220 H220         -32.7158    12.3357     1.2656 H       
 221 H221         -34.5859    14.4305     2.2776 H       
 222 H222         -36.7479    13.8093    -1.0881 H       
 223 H223         -36.3669    16.6006    -1.8569 H       
 224 H224         -37.5633    16.3264    -4.0168 H       
 225 H225         -35.1468    14.4764    -3.8079 H       
 226 H226         -35.7087    15.3369    -5.2612 H       
 227 H227         -35.0498    16.2521    -3.8840 H       
 228 H228         -38.6588    14.2721    -3.4828 H       
 229 H229         -38.7465    17.5653    -2.3530 H       
 230 H230         -40.8305    16.0875    -0.9385 H       
 231 H231         -41.1057    17.7575     0.8303 H       
 232 H232         -39.4430    17.1241     0.8815 H       
 233 H233         -39.4887    19.5112     0.9560 H       
 234 H234         -43.0191    18.8000    -2.0795 H       
 235 H235          21.2215    11.3172    -4.4814 H       
 236 H236          20.4216    12.8212    -3.9651 H       
 237 H237          21.5170    11.9681    -2.8513 H       
 238 H238          19.9452    10.0519    -2.7729 H       
 239 H239          19.1453    11.5559    -2.2567 H       
 240 H240          18.1979    11.8328    -4.5314 H       
 241 H241          18.9978    10.3289    -5.0477 H       
 242 H242          17.7215     9.0636    -3.3393 H       
 243 H243          16.9216    10.5676    -2.8230 H       
 244 H244          15.9742    10.8445    -5.0978 H       
 245 H245          16.7741     9.3405    -5.6140 H       
 246 H246          15.4978     8.0753    -3.9056 H       
 247 H247          14.6979     9.5792    -3.3893 H       
 248 H248          13.7505     9.8562    -5.6641 H       
 249 H249          14.5504     8.3522    -6.1803 H       
 250 H250          13.2741     7.0869    -4.4719 H       
 251 H251          12.4742     8.5909    -3.9557 H       
 252 H252          11.5268     8.8678    -6.2304 H       
 253 H253          12.3267     7.3639    -6.7466 H       
 254 H254          11.0504     6.0986    -5.0382 H       
 255 H255          10.2504     7.6026    -4.5220 H       
 256 H256           9.3031     7.8795    -6.7967 H       
 257 H257          10.1030     6.3756    -7.3130 H       
 258 H258           8.8266     5.1103    -5.6045 H       
 259 H259           8.0267     6.6142    -5.0883 H       
 260 H260           7.0794     6.8912    -7.3630 H       
 261 H261           7.8793     5.3872    -7.8793 H       
 262 H262           6.6029     4.1220    -6.1709 H       
 263 H263           5.8030     5.6259    -5.6546 H       
 264 H264           5.6556     4.3989    -8.4456 H       
 265 H265           4.8556     5.9029    -7.9293 H       
@<TRIPOS>BOND
   1    1    2 2
   2    1    4 1
   3    1   14 am
   4    3    4 1
   5    3  120 1
   6    3  121 1
   7    4    5 1
   8    4  122 1
   9    5    6 1
  10    5  123 1
  11    5  124 1
  12    6    7 1
  13    6  125 1
  14    6  126 1
  15    7    8 1
  16    7  127 1
  17    7  128 1
  18    8    9 1
  19    8  129 1
  20    9   10 2
  21    9   11 1
  22   10  130 1
  23   11  103 am
  24   11  131 1
  25   12   13 2
  26   12   15 1
  27   12   22 am
  28   14   15 1
  29   14  132 1
  30   15   16 1
  31   15  133 1
  32   16   17 1
  33   16   19 1
  34   16  134 1
  35   17   18 1
  36   17  135 1
  37   17  136 1
  38   18  137 1
  39   18  138 1
  40   18  139 1
  41   19  140 1
  42   19  141 1
  43   19  142 1
  44   20   21 2
  45   20   23 1
  46   20   30 am
  47   22   23 1
  48   22  143 1
  49   23   24 1
  50   23  144 1
  51   24   25 1
  52   24  145 1
  53   24  146 1
  54   25   26 1
  55   25   27 1
  56   25  147 1
  57   26  148 1
  58   26  149 1
  59   26  150 1
  60   27  151 1
  61   27  152 1
  62   27  153 1
  63   28   29 2
  64   28   31 1
  65   28   38 am
  66   30   31 1
  67   30  154 1
  68   31   32 1
  69   31  155 1
  70   32   33 1
  71   32  156 1
  72   32  157 1
  73   33   34 1
  74   33  158 1
  75   33  159 1
  76   34   35 1
  77   35  160 1
  78   35  161 1
  79   35  162 1
  80   36   37 2
  81   36   39 1
  82   36   45 am
  83   38   39 1
  84   38  163 1
  85   39   40 1
  86   39  164 1
  87   40   41 1
  88   40   42 1
  89   40  165 1
  90   41  166 1
  91   41  167 1
  92   41  168 1
  93   42  169 1
  94   43   44 2
  95   43   46 1
  96   43   54 am
  97   45   46 1
  98   45  170 1
  99   46   47 1
 100   46  171 1
 101   47   48 1
 102   47  172 1
 103   47  173 1
 104   48   49 1
 105   48  174 1
 106   48  175 1
 107   49   50 1
 108   49  176 1
 109   49  177 1
 110   50   51 1
 111   50  178 1
 112   50  179 1
 113   51  180 1
 114   51  181 1
 115   52   53 2
 116   52   55 1
 117   52   62 am
 118   54   55 1
 119   54  182 1
 120   55   56 1
 121   55  183 1
 122   56   57 1
 123   56  184 1
 124   56  185 1
 125   57   58 1
 126   57   59 1
 127   57  186 1
 128   58  187 1
 129   58  188 1
 130   58  189 1
 131   59  190 1
 132   59  191 1
 133   59  192 1
 134   60   61 2
 135   60   63 1
 136   60   73 am
 137   62   63 1
 138   62  193 1
 139   63   64 1
 140   63  194 1
 141   64   65 1
 142   64  195 1
 143   64  196 1
 144   65   66 1
 145   65  197 1
 146   65  198 1
 147   66   67 1
 148   66  199 1
 149   66  200 1
 150   67   68 1
 151   67  201 1
 152   68   69 2
 153   68   70 1
 154   69  202 1
 155   70  203 1
 156   70  204 1
 157   71   72 2
 158   71   74 1
 159   71   78 am
 160   73   74 1
 161   73  205 1
 162   74   75 1
 163   74  206 1
 164   75  207 1
 165   75  208 1
 166   75  209 1
 167   76   77 2
 168   76   79 1
 169   76   84 am
 170   78   79 1
 171   78  210 1
 172   79   80 1
 173   79  211 1
 174   80   81 1
 175   80  212 1
 176   80  213 1
 177   81  214 1
 178   82   83 2
 179   82   85 1
 180   82   91 am
 181   84   85 1
 182   84  215 1
 183   85   86 1
 184   85  216 1
 185   86   87 1
 186   86   88 1
 187   86  217 1
 188   87  218 1
 189   87  219 1
 190   87  220 1
 191   88  221 1
 192   89   90 2
 193   89   92 1
 194   89   98 am
 195   91   92 1
 196   91  222 1
 197   92   93 1
 198   92  223 1
 199   93   94 1
 200   93   95 1
 201   93  224 1
 202   94  225 1
 203   94  226 1
 204   94  227 1
 205   95  228 1
 206   96   97 2
 207   96   99 1
 208   96  102 1
 209   98   99 1
 210   98  229 1
 211   99  100 1
 212   99  230 1
 213  100  101 1
 214  100  231 1
 215  100  232 1
 216  101  233 1
 217  102  234 1
 218  103  104 2
 219  103  119 1
 220  105  106 1
 221  105  235 1
 222  105  236 1
 223  105  237 1
 224  106  107 1
 225  106  238 1
 226  106  239 1
 227  107  108 1
 228  107  240 1
 229  107  241 1
 230  108  109 1
 231  108  242 1
 232  108  243 1
 233  109  110 1
 234  109  244 1
 235  109  245 1
 236  110  111 1
 237  110  246 1
 238  110  247 1
 239  111  112 1
 240  111  248 1
 241  111  249 1
 242  112  113 1
 243  112  250 1
 244  112  251 1
 245  113  114 1
 246  113  252 1
 247  113  253 1
 248  114  115 1
 249  114  254 1
 250  114  255 1
 251  115  116 1
 252  115  256 1
 253  115  257 1
 254  116  117 1
 255  116  258 1
 256  116  259 1
 257  117  118 1
 258  117  260 1
 259  117  261 1
 260  118  119 1
 261  118  262 1
 262  118  263 1
 263  119  264 1
 264  119  265 1

#	End of record

