#	Name: ASD05730107
#	Creating user name:	WinNT
#	Creation time:	15. 06. 2019 21:02

#	Modifying user name:	WinNT
#	Modification time:	15. 06. 2019 21:02

#	Program:	/corina/corina34_cracker 3.40 0067  02.08.2006

@<TRIPOS>MOLECULE
ASD05730107
  67   71    0    0    0
SMALL
NO_CHARGES


@<TRIPOS>ATOM
   1 N1            -0.0118     1.3947     0.0612 N.3     
   2 C2             0.0057    -0.0044     0.0405 C.ar    
   3 C3            -1.0324    -0.7031    -0.5619 C.ar    
   4 C4            -1.0149    -2.0835    -0.5827 C.ar    
   5 C5             0.0408    -2.7733    -0.0013 C.ar    
   6 C6             1.0787    -2.0748     0.6015 C.ar    
   7 C7             1.0641    -0.6942     0.6173 C.ar    
   8 N8             0.0586    -4.1737    -0.0224 N.pl3   
   9 C9             1.2583    -4.8474    -0.1422 C.ar    
  10 N10            1.2605    -6.1684    -0.0467 N.ar    
  11 C11            2.3945    -6.8510    -0.1571 C.ar    
  12 C12            3.5946    -6.1409    -0.3778 C.ar    
  13 C13            3.5394    -4.7420    -0.4714 C.ar    
  14 N14            2.3672    -4.1469    -0.3544 N.ar    
  15 N15            2.4060    -8.2195    -0.0590 N.am    
  16 C16            3.5590    -8.9066    -0.1713 C.2     
  17 C17            4.8215    -8.2008    -0.4000 C.2     
  18 C18            4.8196    -6.8352    -0.5006 C.2     
  19 C19            1.1516    -8.9405     0.1706 C.3     
  20 C20            0.5138    -9.2953    -1.1741 C.3     
  21 O21            3.5516   -10.1214    -0.0818 O.2     
  22 C22            6.0895    -8.9575    -0.5220 C.ar    
  23 C23            6.6859    -9.1272    -1.7708 C.ar    
  24 C24            6.6942    -9.4980     0.6127 C.ar    
  25 C25            7.8751   -10.2012     0.4928 C.ar    
  26 C26            8.4595   -10.3708    -0.7498 C.ar    
  27 C27            7.8673    -9.8327    -1.8781 C.ar    
  28 C28            1.1758     1.9262     0.7444 C.3     
  29 C29            1.1589     3.4551     0.6760 C.3     
  30 N30           -0.0732     3.9572     1.3002 N.3     
  31 C31           -1.2607     3.4257     0.6170 C.3     
  32 C32           -1.2438     1.8968     0.6854 C.3     
  33 C33           -0.0915     5.4259     1.3219 C.3     
  34 S34            5.9327    -8.4430    -3.2092 S.o2    
  35 C35            4.3658    -9.3426    -3.3712 C.3     
  36 O36            5.6946    -7.0844    -2.8675 O.2     
  37 O37            6.8175    -8.7883    -4.2662 O.2     
  38 H38           -1.8537    -0.1666    -1.0138 H       
  39 H39           -1.8224    -2.6268    -1.0508 H       
  40 H40            1.8996    -2.6113     1.0540 H       
  41 H41            1.8713    -0.1510     1.0861 H       
  42 H42           -0.7717    -4.6704     0.0472 H       
  43 H43            4.4365    -4.1648    -0.6393 H       
  44 H44            5.7404    -6.2967    -0.6691 H       
  45 H45            1.3548    -9.8545     0.7287 H       
  46 H46            0.4695    -8.3104     0.7413 H       
  47 H47            1.1959    -9.9255    -1.7448 H       
  48 H48           -0.4195    -9.8318    -1.0032 H       
  49 H49            0.3106    -8.3814    -1.7322 H       
  50 H50            6.2392    -9.3660     1.5832 H       
  51 H51            8.3445   -10.6199     1.3708 H       
  52 H52            9.3840   -10.9221    -0.8387 H       
  53 H53            8.3281    -9.9683    -2.8454 H       
  54 H54            1.1680     1.6087     1.7871 H       
  55 H55            2.0749     1.5502     0.2562 H       
  56 H56            2.0237     3.8525     1.2072 H       
  57 H57            1.1942     3.7729    -0.3661 H       
  58 H58           -2.1599     3.8016     1.1051 H       
  59 H59           -1.2529     3.7431    -0.4258 H       
  60 H60           -2.1087     1.4994     0.1542 H       
  61 H61           -1.2791     1.5790     1.7274 H       
  62 H62           -0.0372     5.8051     0.3014 H       
  63 H63           -1.0140     5.7709     1.7890 H       
  64 H64            0.7629     5.7916     1.8914 H       
  65 H65            3.7605    -9.1816    -2.4791 H       
  66 H66            3.8271    -8.9793    -4.2463 H       
  67 H67            4.5684   -10.4075    -3.4854 H       
@<TRIPOS>BOND
   1    1    2 1
   2    1   28 1
   3    1   32 1
   4    2    3 ar
   5    2    7 ar
   6    3    4 ar
   7    3   38 1
   8    4    5 ar
   9    4   39 1
  10    5    6 ar
  11    5    8 1
  12    6    7 ar
  13    6   40 1
  14    7   41 1
  15    8    9 1
  16    8   42 1
  17    9   10 ar
  18    9   14 ar
  19   10   11 ar
  20   11   12 ar
  21   11   15 1
  22   12   13 ar
  23   12   18 1
  24   13   14 ar
  25   13   43 1
  26   15   16 am
  27   15   19 1
  28   16   17 1
  29   16   21 2
  30   17   18 2
  31   17   22 1
  32   18   44 1
  33   19   20 1
  34   19   45 1
  35   19   46 1
  36   20   47 1
  37   20   48 1
  38   20   49 1
  39   22   24 ar
  40   22   23 ar
  41   23   34 1
  42   23   27 ar
  43   24   25 ar
  44   24   50 1
  45   25   26 ar
  46   25   51 1
  47   26   27 ar
  48   26   52 1
  49   27   53 1
  50   28   29 1
  51   28   54 1
  52   28   55 1
  53   29   30 1
  54   29   56 1
  55   29   57 1
  56   30   31 1
  57   30   33 1
  58   31   32 1
  59   31   58 1
  60   31   59 1
  61   32   60 1
  62   32   61 1
  63   33   62 1
  64   33   63 1
  65   33   64 1
  66   34   35 1
  67   34   36 2
  68   34   37 2
  69   35   65 1
  70   35   66 1
  71   35   67 1

#	End of record

