#	Name: ASD09080017
#	Creating user name:	WinNT
#	Creation time:	15. 06. 2019 21:20

#	Modifying user name:	WinNT
#	Modification time:	15. 06. 2019 21:20

#	Program:	/corina/corina34_cracker 3.40 0067  02.08.2006

@<TRIPOS>MOLECULE
ASD09080017
  48   49    0    0    0
SMALL
NO_CHARGES


@<TRIPOS>ATOM
   1 C1            -0.0167     1.3799     0.0096 C.ar    
   2 C2             0.0021    -0.0041     0.0020 C.ar    
   3 C3            -1.1844    -0.7169     0.0091 C.ar    
   4 C4            -2.3938    -0.0494     0.0242 C.ar    
   5 C5            -2.4179     1.3436     0.0324 C.ar    
   6 C6            -1.2209     2.0565     0.0305 C.ar    
   7 Cl7            1.4756     2.2669     0.0001 Cl      
   8 Cl8           -1.1526    -2.4526    -0.0017 Cl      
   9 C9            -3.7143     2.0655     0.0481 C.ar    
  10 C10           -3.7388     3.4586     0.0563 C.ar    
  11 C11           -4.9474     4.1250     0.0704 C.ar    
  12 C12           -6.1329     3.4124     0.0765 C.ar    
  13 C13           -6.1145     2.0293     0.0689 C.ar    
  14 C14           -4.9116     1.3528     0.0489 C.ar    
  15 C15           -7.4494     4.1455     0.0919 C.3     
  16 C16           -7.9073     4.4019    -1.3453 C.3     
  17 C17           -9.2797     5.0244    -1.3318 C.2     
  18 O18          -10.3094     4.3669    -0.7758 O.3     
  19 O19           -9.4531     6.1153    -1.8215 O.2     
  20 N20           -6.9653     5.3107    -2.0032 N.am    
  21 O21           -5.9770     6.1337    -3.9499 O.3     
  22 C22           -5.8975     6.0656    -5.3981 C.3     
  23 C23           -7.2671     6.3871    -5.9997 C.3     
  24 C24           -4.8688     7.0805    -5.9007 C.3     
  25 C25           -5.4730     4.6575    -5.8200 C.3     
  26 C26           -6.8427     5.2984    -3.3453 C.2     
  27 O27           -7.5135     4.5335    -4.0096 O.2     
  28 H28            0.9456    -0.5295    -0.0098 H       
  29 H29           -3.3190    -0.6065     0.0293 H       
  30 H30           -1.2346     3.1364     0.0372 H       
  31 H31           -2.8137     4.0160     0.0519 H       
  32 H32           -4.9675     5.2048     0.0771 H       
  33 H33           -7.0430     1.4778     0.0744 H       
  34 H34           -4.8983     0.2729     0.0430 H       
  35 H35           -8.1955     3.5418     0.6087 H       
  36 H36           -7.3295     5.0969     0.6102 H       
  37 H37           -7.9418     3.4581    -1.8895 H       
  38 H38          -11.1706     4.8065    -0.7911 H       
  39 H39           -6.4298     5.9213    -1.4728 H       
  40 H40           -7.5695     7.3902    -5.6991 H       
  41 H41           -7.2074     6.3360    -7.0868 H       
  42 H42           -8.0000     5.6640    -5.6416 H       
  43 H43           -3.8931     6.8515    -5.4721 H       
  44 H44           -4.8092     7.0294    -6.9879 H       
  45 H45           -5.1713     8.0837    -5.6002 H       
  46 H46           -6.2058     3.9345    -5.4619 H       
  47 H47           -5.4133     4.6064    -6.9071 H       
  48 H48           -4.4973     4.4285    -5.3914 H       
@<TRIPOS>BOND
   1    1    2 ar
   2    1    7 1
   3    1    6 ar
   4    2    3 ar
   5    2   28 1
   6    3    4 ar
   7    3    8 1
   8    4    5 ar
   9    4   29 1
  10    5    6 ar
  11    5    9 1
  12    6   30 1
  13    9   10 ar
  14    9   14 ar
  15   10   11 ar
  16   10   31 1
  17   11   12 ar
  18   11   32 1
  19   12   13 ar
  20   12   15 1
  21   13   14 ar
  22   13   33 1
  23   14   34 1
  24   15   16 1
  25   15   35 1
  26   15   36 1
  27   16   17 1
  28   16   20 1
  29   16   37 1
  30   17   18 1
  31   17   19 2
  32   18   38 1
  33   20   26 am
  34   20   39 1
  35   21   22 1
  36   21   26 1
  37   22   23 1
  38   22   24 1
  39   22   25 1
  40   23   40 1
  41   23   41 1
  42   23   42 1
  43   24   43 1
  44   24   44 1
  45   24   45 1
  46   25   46 1
  47   25   47 1
  48   25   48 1
  49   26   27 2

#	End of record

