#	Name: ASD03731202
#	Creating user name:	WinNT
#	Creation time:	15. 06. 2019 20:45

#	Modifying user name:	WinNT
#	Modification time:	15. 06. 2019 20:45

#	Program:	/corina/corina34_cracker 3.40 0067  02.08.2006

@<TRIPOS>MOLECULE
ASD03731202
  65   71    0    0    0
SMALL
NO_CHARGES


@<TRIPOS>ATOM
   1 C1            -0.0180     1.4742     0.0101 C.2     
   2 C2             0.0021    -0.0041     0.0020 C.ar    
   3 C3             1.2184    -0.6885    -0.0133 C.ar    
   4 C4             1.2301    -2.0680    -0.0203 C.ar    
   5 C5             0.0396    -2.7730    -0.0127 C.ar    
   6 C6            -1.1695    -2.1007     0.0024 C.ar    
   7 C7            -1.1952    -0.7214     0.0154 C.ar    
   8 O8             1.0263     2.0963     0.0035 O.2     
   9 N9            -1.1942     2.1322     0.0193 N.am    
  10 C10            0.0601    -4.2798    -0.0215 C.3     
  11 O11           -2.0563    -1.5348     6.2775 O.3     
  12 C12           -2.2837    -1.6203     7.6967 C.3     
  13 O13           -2.7818    -2.9582     7.8836 O.3     
  14 C14           -2.2564    -3.6908     6.8579 C.ar    
  15 C15           -1.8113    -2.8150     5.8702 C.ar    
  16 C16           -2.1186    -5.0563     6.6848 C.ar    
  17 C17           -1.5385    -5.5652     5.5267 C.ar    
  18 C18           -1.1053    -4.6808     4.5435 C.ar    
  19 C19           -1.2356    -3.3185     4.7159 C.ar    
  20 O20           -1.2955    -6.8588     5.1692 O.3     
  21 C21           -0.5594    -5.5216     3.4206 C.3     
  22 C22           -1.0841    -6.9267     3.7458 C.3     
  23 N23            0.0802    -4.7759     1.3568 N.am    
  24 C24           -1.0278    -5.0465     2.0754 C.2     
  25 C25            0.9387    -5.4848     3.3560 C.ar    
  26 C26            1.9375    -5.7964     4.2513 C.ar    
  27 C27            3.2644    -5.6548     3.8860 C.ar    
  28 C28            3.5850    -5.1990     2.6202 C.ar    
  29 C29            2.5881    -4.8847     1.7202 C.ar    
  30 C30            1.2497    -5.0246     2.0792 C.ar    
  31 O31           -2.1775    -4.9294     1.7074 O.2     
  32 C32           -1.2141     3.5970     0.0274 C.3     
  33 C33           -2.5311     4.0925    -0.5733 C.3     
  34 C34           -2.5518     5.6223    -0.5649 C.3     
  35 C35           -2.4262     6.1262     0.8743 C.3     
  36 C36           -1.1092     5.6307     1.4750 C.3     
  37 C37           -1.0885     4.1009     1.4665 C.3     
  38 H38            2.1484    -0.1393    -0.0199 H       
  39 H39            2.1706    -2.5988    -0.0321 H       
  40 H40           -2.0953    -2.6569     0.0083 H       
  41 H41           -2.1396    -0.1978     0.0318 H       
  42 H42           -2.0276     1.6358     0.0206 H       
  43 H43           -0.8299    -4.6523    -0.5288 H       
  44 H44            0.9498    -4.6281    -0.5460 H       
  45 H45           -1.3511    -1.4791     8.2431 H       
  46 H46           -3.0272    -0.8875     8.0102 H       
  47 H47           -2.4636    -5.7319     7.4534 H       
  48 H48           -0.8881    -2.6428     3.9484 H       
  49 H49           -0.3397    -7.6843     3.5007 H       
  50 H50           -2.0214    -7.1203     3.2241 H       
  51 H51            1.6849    -6.1520     5.2393 H       
  52 H52            4.0481    -5.9000     4.5876 H       
  53 H53            4.6208    -5.0884     2.3351 H       
  54 H54            2.8463    -4.5288     0.7338 H       
  55 H55           -0.3801     3.9750    -0.5640 H       
  56 H56           -2.6206     3.7336    -1.5986 H       
  57 H57           -3.3651     3.7146     0.0180 H       
  58 H58           -1.7178     6.0003    -1.1563 H       
  59 H59           -3.4901     5.9753    -0.9929 H       
  60 H60           -2.4410     7.2161     0.8803 H       
  61 H61           -3.2602     5.7483     1.4656 H       
  62 H62           -0.2752     6.0086     0.8836 H       
  63 H63           -1.0197     5.9896     2.5003 H       
  64 H64           -1.9225     3.7229     2.0579 H       
  65 H65           -0.1502     3.7479     1.8945 H       
@<TRIPOS>BOND
   1    1    2 1
   2    1    8 2
   3    1    9 am
   4    2    3 ar
   5    2    7 ar
   6    3    4 ar
   7    3   38 1
   8    4    5 ar
   9    4   39 1
  10    5    6 ar
  11    5   10 1
  12    6    7 ar
  13    6   40 1
  14    7   41 1
  15    9   32 1
  16    9   42 1
  17   10   23 1
  18   10   43 1
  19   10   44 1
  20   11   12 1
  21   11   15 1
  22   12   13 1
  23   12   45 1
  24   12   46 1
  25   13   14 1
  26   14   15 ar
  27   14   16 ar
  28   15   19 ar
  29   16   17 ar
  30   16   47 1
  31   17   18 ar
  32   17   20 1
  33   18   19 ar
  34   18   21 1
  35   19   48 1
  36   20   22 1
  37   21   22 1
  38   21   24 1
  39   21   25 1
  40   22   49 1
  41   22   50 1
  42   23   24 am
  43   23   30 1
  44   24   31 2
  45   25   26 ar
  46   25   30 ar
  47   26   27 ar
  48   26   51 1
  49   27   28 ar
  50   27   52 1
  51   28   29 ar
  52   28   53 1
  53   29   30 ar
  54   29   54 1
  55   32   33 1
  56   32   37 1
  57   32   55 1
  58   33   34 1
  59   33   56 1
  60   33   57 1
  61   34   35 1
  62   34   58 1
  63   34   59 1
  64   35   36 1
  65   35   60 1
  66   35   61 1
  67   36   37 1
  68   36   62 1
  69   36   63 1
  70   37   64 1
  71   37   65 1

#	End of record

