#	Name: ASD03230008
#	Creating user name:	WinNT
#	Creation time:	15. 06. 2019 20:34

#	Modifying user name:	WinNT
#	Modification time:	15. 06. 2019 20:34

#	Program:	/corina/corina34_cracker 3.40 0067  02.08.2006

@<TRIPOS>MOLECULE
ASD03230008
 156  158    0    0    0
SMALL
NO_CHARGES


@<TRIPOS>ATOM
   1 C1           -13.4083    -0.7048    -1.7752 C.3     
   2 C2           -13.7295    -2.0133    -2.4919 C.3     
   3 C3           -15.1474    -2.4373    -2.2070 C.2     
   4 C4           -16.1582    -1.9412    -2.8848 C.2     
   5 C5           -15.8823    -0.9589    -4.0003 C.3     
   6 C6           -11.0954    -0.1167    -0.9873 C.3     
   7 C7           -12.4183    -0.8044    -0.6302 C.3     
   8 C8           -17.1258    -0.7291    -4.8580 C.3     
   9 C9           -16.7272    -0.2638    -6.2540 C.3     
  10 C10           -9.2874    -0.6140    -2.5710 C.2     
  11 C11          -10.5735    -0.5582    -2.3219 C.2     
  12 C12          -15.4028    -1.0016    -9.1625 C.3     
  13 C13          -17.1190    -1.2788    -7.3246 C.3     
  14 C14          -16.8249    -0.7131    -8.7097 C.3     
  15 O15           -7.5971    -0.2166    -5.8787 O.3     
  16 C16           -7.7648    -0.0720    -4.4710 C.3     
  17 C17           -8.7923    -1.0662    -3.9275 C.3     
  18 C18          -13.8860     0.2005   -10.9246 C.3     
  19 C19          -15.1997    -0.4162   -10.5412 C.2     
  20 O20          -17.7712    -1.2454    -9.6796 O.3     
  21 C21          -17.4933    -1.0598   -10.9808 C.2     
  22 C22          -16.2192    -0.4752   -11.4070 C.2     
  23 C23           -8.5326    -0.9133    -7.9717 C.2     
  24 C24           -8.6456    -0.2757    -6.7063 C.2     
  25 C25          -11.4221    -0.1846   -10.9529 C.3     
  26 C26          -12.7897    -0.8650   -11.0156 C.3     
  27 C27           -9.4350    -1.4591   -10.1915 C.2     
  28 C28           -9.5255    -0.8184    -8.8801 C.2     
  29 C29          -10.3151    -1.1806   -11.1600 C.2     
  30 O30          -18.3160    -1.3807   -11.8150 O.2     
  31 C31           -8.1755     1.3594    -4.1228 C.3     
  32 C32           -7.2434     2.3442    -4.8314 C.3     
  33 C33           -7.6542     3.7762    -4.4830 C.3     
  34 C34           -6.7948     4.7611    -5.2781 C.3     
  35 C35           -7.1661     6.1930    -4.8872 C.3     
  36 C36           -6.3196     7.1631    -5.6703 C.2     
  37 C37           -6.4915     8.6466    -5.4684 C.3     
  38 C38           -6.2790     9.3704    -6.7995 C.3     
  39 C39           -7.3044     8.8726    -7.8201 C.3     
  40 C40           -7.1759     9.6710    -9.0918 C.2     
  41 C41           -7.2152     9.0607   -10.2606 C.2     
  42 N42           -6.6295     7.8067   -10.4111 N.am    
  43 C43           -6.8230     7.1042   -11.5449 C.2     
  44 C44           -5.8028     7.2506    -9.3370 C.3     
  45 O45           -6.3128     6.0117   -11.6761 O.2     
  46 O46           -5.5035     6.7517    -6.4597 O.2     
  47 O47           -4.9601     9.1047    -7.2810 O.3     
  48 C48           -9.1281     3.9843    -4.8370 C.3     
  49 C49           -5.4662     9.1445    -4.4478 C.3     
  50 O50           -5.8983     2.1175    -4.4055 O.3     
  51 C51           -8.0784     1.5640    -2.6096 C.3     
  52 C52           -8.1288    -2.4404    -3.7773 C.3     
  53 C53          -12.7841    -3.1482    -2.1360 C.3     
  54 O54          -10.1335    -0.4111     0.0271 O.3     
  55 O55          -14.6491    -0.1519    -1.3111 O.3     
  56 O56          -15.3451     0.2746    -3.5473 O.3     
  57 H57          -16.9621     0.3768    -8.6808 H       
  58 C58          -16.3781    -2.5941    -7.0947 C.3     
  59 H59           -6.8023    -0.2775    -3.9736 H       
  60 C60          -15.3977     0.6470    -2.1873 C.3     
  61 C61          -16.8446     0.7044    -1.6913 C.3     
  62 C62          -14.8352     2.0790    -2.0695 C.3     
  63 O63          -12.9088    -1.7838    -9.9248 O.3     
  64 O64           -9.7099     0.2160    -6.3870 O.2     
  65 C65           -4.0138    10.1327    -6.9813 C.3     
  66 C66           -4.9327     2.2117    -5.4546 C.3     
  67 C67          -10.1803    -1.8829   -12.4932 C.3     
  68 C68          -12.4566    -3.1054   -10.2260 C.3     
  69 C69          -10.0445     0.5830     1.0497 C.3     
  70 O70          -15.3203    -0.0292    -6.3096 O.3     
  71 C71          -14.9401     1.3067    -5.9739 C.3     
  72 H72          -12.9816    -0.0019    -2.5124 H       
  73 H73          -13.6480    -1.8347    -3.5743 H       
  74 H74          -15.3311    -3.1671    -1.4326 H       
  75 H75          -17.1749    -2.2407    -2.6476 H       
  76 H76          -15.1297    -1.4478    -4.6472 H       
  77 H77          -11.2637     0.9640    -1.0086 H       
  78 H78          -12.8493    -0.2340     0.2256 H       
  79 H79          -12.2422    -1.7928    -0.2494 H       
  80 H80          -17.7050    -1.6462    -4.9140 H       
  81 H81          -17.7387     0.0456    -4.3893 H       
  82 H82          -17.2439     0.6795    -6.4684 H       
  83 H83           -8.5662    -0.3438    -1.8127 H       
  84 H84          -11.2671    -0.8273    -3.1096 H       
  85 H85          -14.6875    -0.5540    -8.4804 H       
  86 H86          -15.2358    -2.0725    -9.2468 H       
  87 H87          -18.1976    -1.4681    -7.2444 H       
  88 H88           -9.6338    -1.1403    -4.6105 H       
  89 H89          -13.9825     0.7024   -11.8886 H       
  90 H90          -13.6011     0.9430   -10.1717 H       
  91 H91          -16.1022    -0.1024   -12.4127 H       
  92 H92           -7.6386    -1.4788    -8.1988 H       
  93 H93          -11.3667     0.5735   -11.7397 H       
  94 H94          -11.3092     0.3069    -9.9892 H       
  95 H95          -12.8927    -1.4014   -11.9570 H       
  96 H96           -8.6472    -2.1763   -10.3791 H       
  97 H97          -10.4186    -0.2612    -8.6227 H       
  98 H98           -9.2015     1.5323    -4.4477 H       
  99 H99           -7.3125     2.1984    -5.9094 H       
 100 H100          -7.5092     3.9464    -3.4162 H       
 101 H101          -5.7420     4.5855    -5.0568 H       
 102 H102          -6.9707     4.6183    -6.3443 H       
 103 H103          -8.2189     6.3686    -5.1085 H       
 104 H104          -6.9902     6.3357    -3.8210 H       
 105 H105          -7.4976     8.8491    -5.1013 H       
 106 H106          -6.4031    10.4434    -6.6535 H       
 107 H107          -7.1235     7.8190    -8.0327 H       
 108 H108          -8.3090     8.9942    -7.4148 H       
 109 H109          -7.0516    10.7429    -9.0462 H       
 110 H110          -7.7017     9.5338   -11.1007 H       
 111 H111          -7.4325     7.5141   -12.3367 H       
 112 H112          -6.2954     6.3742    -8.9159 H       
 113 H113          -4.8308     6.9634    -9.7383 H       
 114 H114          -5.6669     8.0006    -8.5578 H       
 115 H115          -9.2731     3.8141    -5.9038 H       
 116 H116          -9.7404     3.2827    -4.2705 H       
 117 H117          -9.4208     5.0045    -4.5888 H       
 118 H118          -4.4729     8.7965    -4.7311 H       
 119 H119          -5.4765    10.2342    -4.4245 H       
 120 H120          -5.7189     8.7576    -3.4606 H       
 121 H121          -7.3853     0.8359    -2.1883 H       
 122 H122          -7.7180     2.5714    -2.4016 H       
 123 H123          -9.0628     1.4305    -2.1610 H       
 124 H124          -8.8563    -3.1550    -3.3922 H       
 125 H125          -7.7675    -2.7776    -4.7488 H       
 126 H126          -7.2910    -2.3655    -3.0841 H       
 127 H127         -12.8363    -3.3421    -1.0646 H       
 128 H128         -13.0726    -4.0463    -2.6822 H       
 129 H129         -11.7652    -2.8705    -2.4057 H       
 130 H130         -16.6376    -2.9906    -6.1131 H       
 131 H131         -16.6644    -3.3116    -7.8636 H       
 132 H132         -15.3033    -2.4190    -7.1433 H       
 133 H133         -16.8686     1.1335    -0.6896 H       
 134 H134         -17.4357     1.3237    -2.3661 H       
 135 H135         -17.2600    -0.3030    -1.6651 H       
 136 H136         -13.7814     2.0795    -2.3481 H       
 137 H137         -15.3874     2.7421    -2.7353 H       
 138 H138         -14.9395     2.4269    -1.0418 H       
 139 H139          -3.0656     9.9071    -7.4692 H       
 140 H140          -4.3900    11.0895    -7.3432 H       
 141 H141          -3.8641    10.1855    -5.9030 H       
 142 H142          -5.2118     1.5404    -6.2667 H       
 143 H143          -4.8981     3.2361    -5.8257 H       
 144 H144          -3.9516     1.9307    -5.0717 H       
 145 H145          -9.5333    -1.2990   -13.1478 H       
 146 H146          -9.7464    -2.8712   -12.3410 H       
 147 H147         -11.1641    -1.9847   -12.9514 H       
 148 H148         -13.0410    -3.5098   -11.0525 H       
 149 H149         -11.4038    -3.0741   -10.5066 H       
 150 H150         -12.5800    -3.7405    -9.3488 H       
 151 H151          -9.3583     0.2450     1.8262 H       
 152 H152          -9.6763     1.5145     0.6199 H       
 153 H153         -11.0309     0.7477     1.4832 H       
 154 H154         -15.4100     2.0035    -6.6679 H       
 155 H155         -15.2639     1.5321    -4.9578 H       
 156 H156         -13.8564     1.4035    -6.0398 H       
@<TRIPOS>BOND
   1    1    2 1
   2    1    7 1
   3    1   55 1
   4    1   72 1
   5    2    3 1
   6    2   53 1
   7    2   73 1
   8    3    4 2
   9    3   74 1
  10    4    5 1
  11    4   75 1
  12    5    8 1
  13    5   56 1
  14    5   76 1
  15    6    7 1
  16    6   54 1
  17    6   11 1
  18    6   77 1
  19    7   78 1
  20    7   79 1
  21    8    9 1
  22    8   80 1
  23    8   81 1
  24    9   13 1
  25    9   70 1
  26    9   82 1
  27   10   11 2
  28   10   17 1
  29   10   83 1
  30   11   84 1
  31   12   14 1
  32   12   19 1
  33   12   85 1
  34   12   86 1
  35   13   14 1
  36   13   58 1
  37   13   87 1
  38   14   20 1
  39   14   57 1
  40   15   16 1
  41   15   24 1
  42   16   31 1
  43   16   59 1
  44   16   17 1
  45   17   52 1
  46   17   88 1
  47   18   19 1
  48   18   26 1
  49   18   89 1
  50   18   90 1
  51   19   22 2
  52   20   21 1
  53   21   22 1
  54   21   30 2
  55   22   91 1
  56   23   24 1
  57   23   28 2
  58   23   92 1
  59   24   64 2
  60   25   26 1
  61   25   29 1
  62   25   93 1
  63   25   94 1
  64   26   63 1
  65   26   95 1
  66   27   28 1
  67   27   29 2
  68   27   96 1
  69   28   97 1
  70   29   67 1
  71   31   32 1
  72   31   51 1
  73   31   98 1
  74   32   33 1
  75   32   50 1
  76   32   99 1
  77   33   34 1
  78   33   48 1
  79   33  100 1
  80   34   35 1
  81   34  101 1
  82   34  102 1
  83   35   36 1
  84   35  103 1
  85   35  104 1
  86   36   37 1
  87   36   46 2
  88   37   38 1
  89   37   49 1
  90   37  105 1
  91   38   39 1
  92   38   47 1
  93   38  106 1
  94   39   40 1
  95   39  107 1
  96   39  108 1
  97   40   41 2
  98   40  109 1
  99   41   42 1
 100   41  110 1
 101   42   43 am
 102   42   44 1
 103   43   45 2
 104   43  111 1
 105   44  112 1
 106   44  113 1
 107   44  114 1
 108   47   65 1
 109   48  115 1
 110   48  116 1
 111   48  117 1
 112   49  118 1
 113   49  119 1
 114   49  120 1
 115   50   66 1
 116   51  121 1
 117   51  122 1
 118   51  123 1
 119   52  124 1
 120   52  125 1
 121   52  126 1
 122   53  127 1
 123   53  128 1
 124   53  129 1
 125   54   69 1
 126   55   60 1
 127   56   60 1
 128   58  130 1
 129   58  131 1
 130   58  132 1
 131   60   61 1
 132   60   62 1
 133   61  133 1
 134   61  134 1
 135   61  135 1
 136   62  136 1
 137   62  137 1
 138   62  138 1
 139   63   68 1
 140   65  139 1
 141   65  140 1
 142   65  141 1
 143   66  142 1
 144   66  143 1
 145   66  144 1
 146   67  145 1
 147   67  146 1
 148   67  147 1
 149   68  148 1
 150   68  149 1
 151   68  150 1
 152   69  151 1
 153   69  152 1
 154   69  153 1
 155   70   71 1
 156   71  154 1
 157   71  155 1
 158   71  156 1

#	End of record

