#	Name: ASD08070639
#	Creating user name:	WinNT
#	Creation time:	15. 06. 2019 21:15

#	Modifying user name:	WinNT
#	Modification time:	15. 06. 2019 21:15

#	Program:	/corina/corina34_cracker 3.40 0067  02.08.2006

@<TRIPOS>MOLECULE
ASD08070639
  47   47    0    0    0
SMALL
NO_CHARGES


@<TRIPOS>ATOM
   1 C1             0.1812     1.5138    -0.1625 C.2     
   2 C2             0.2869     0.0422    -0.2064 C.ar    
   3 C3             1.5409    -0.5678    -0.2981 C.ar    
   4 C4             1.6352    -1.9407    -0.3388 C.ar    
   5 C5             0.4851    -2.7201    -0.2893 C.ar    
   6 C6            -0.7638    -2.1174    -0.1980 C.ar    
   7 C7            -0.8662    -0.7448    -0.1506 C.ar    
   8 O8             1.1860     2.1970    -0.2062 O.2     
   9 N9            -1.0294     2.1003    -0.0797 N.am    
  10 C10           -0.9204     6.4274    -2.4686 C.3     
  11 C11           -0.9643     5.7492    -1.0978 C.3     
  12 C12           -0.9621     4.2301    -1.2800 C.3     
  13 C13           -1.1301     3.5529     0.0816 C.3     
  14 C14           -2.5005     3.9078     0.6621 C.3     
  15 C15           -2.6196     3.3344     2.0756 C.3     
  16 C16           -3.9900     3.6893     2.6561 C.3     
  17 C17            0.2614     6.1669    -0.2828 C.3     
  18 C18            2.9870    -2.5995    -0.4377 C.3     
  19 O19            0.5822    -4.0731    -0.3305 O.3     
  20 C20           -0.6390    -4.8131    -0.2756 C.3     
  21 H21            2.4348     0.0371    -0.3373 H       
  22 H22           -1.6549    -2.7263    -0.1598 H       
  23 H23           -1.8368    -0.2772    -0.0752 H       
  24 H24           -1.8340     1.5606    -0.1269 H       
  25 H25           -1.7936     6.1298    -3.0493 H       
  26 H26           -0.9219     7.5096    -2.3388 H       
  27 H27           -0.0145     6.1258    -2.9944 H       
  28 H28           -1.8702     6.0508    -0.5721 H       
  29 H29           -1.7854     3.9414    -1.9334 H       
  30 H30           -0.0176     3.9191    -1.7265 H       
  31 H31           -0.3484     3.8984     0.7582 H       
  32 H32           -2.6097     4.9917     0.6994 H       
  33 H33           -3.2827     3.4853     0.0315 H       
  34 H34           -2.5105     2.2505     2.0384 H       
  35 H35           -1.8374     3.7569     2.7062 H       
  36 H36           -4.0749     3.2808     3.6631 H       
  37 H37           -4.0992     4.7732     2.6933 H       
  38 H38           -4.7722     3.2668     2.0255 H       
  39 H39            0.2704     5.6254     0.6632 H       
  40 H40            1.1669     5.9343    -0.8432 H       
  41 H41            0.2200     7.2385    -0.0876 H       
  42 H42            3.3752    -2.7845     0.5639 H       
  43 H43            2.8921    -3.5454    -0.9710 H       
  44 H44            3.6715    -1.9452    -0.9775 H       
  45 H45           -0.4195    -5.8800    -0.3169 H       
  46 H46           -1.1605    -4.5851     0.6540 H       
  47 H47           -1.2685    -4.5387    -1.1221 H       
@<TRIPOS>BOND
   1    1    2 1
   2    1    8 2
   3    1    9 am
   4    2    3 ar
   5    2    7 ar
   6    3    4 ar
   7    3   21 1
   8    4    5 ar
   9    4   18 1
  10    5    6 ar
  11    5   19 1
  12    6    7 ar
  13    6   22 1
  14    7   23 1
  15    9   13 1
  16    9   24 1
  17   10   11 1
  18   10   25 1
  19   10   26 1
  20   10   27 1
  21   11   12 1
  22   11   17 1
  23   11   28 1
  24   12   13 1
  25   12   29 1
  26   12   30 1
  27   13   14 1
  28   13   31 1
  29   14   15 1
  30   14   32 1
  31   14   33 1
  32   15   16 1
  33   15   34 1
  34   15   35 1
  35   16   36 1
  36   16   37 1
  37   16   38 1
  38   17   39 1
  39   17   40 1
  40   17   41 1
  41   18   42 1
  42   18   43 1
  43   18   44 1
  44   19   20 1
  45   20   45 1
  46   20   46 1
  47   20   47 1

#	End of record

