#	Name: ASD07932193
#	Creating user name:	WinNT
#	Creation time:	15. 06. 2019 21:14

#	Modifying user name:	WinNT
#	Modification time:	15. 06. 2019 21:14

#	Program:	/corina/corina34_cracker 3.40 0067  02.08.2006

@<TRIPOS>MOLECULE
ASD07932193
  68   70    0    0    0
SMALL
NO_CHARGES


@<TRIPOS>ATOM
   1 Cl1            0.0000     0.0000     0.0000 Cl      
   2 H2             0.0000     1.3700     0.0000 H       
   3 Cl3            5.0000     6.3700     5.0000 Cl      
   4 H4             5.0000     7.7400     5.0000 H       
   5 C5            10.9496    19.7847    13.0803 C.ar    
   6 C6            10.9798    18.3919    13.0767 C.ar    
   7 C7            12.1600    17.7170    12.9947 C.ar    
   8 C8            13.3654    18.4313    12.9120 C.ar    
   9 C9            13.3407    19.8505    12.9147 C.ar    
  10 C10           12.0986    20.5130    13.0014 C.ar    
  11 C11           14.6039    17.7673    12.8265 C.ar    
  12 C12           15.7377    18.5229    12.7492 C.ar    
  13 C13           15.6448    19.9230    12.7564 C.ar    
  14 N14           14.4801    20.5363    12.8373 N.ar    
  15 C15           16.8845    20.7314    12.6723 C.2     
  16 N16           16.8131    22.0772    12.6781 N.am    
  17 O17           17.9651    20.1807    12.5981 O.2     
  18 C18           18.0383    22.8762    12.5949 C.3     
  19 C19           17.7967    24.2518    13.2239 C.3     
  20 C20           19.0564    25.1066    13.0621 C.3     
  21 O21           19.3838    25.2124    11.6752 O.3     
  22 C22           19.6664    23.9613    11.0452 C.3     
  23 C23           18.4311    23.0605    11.1259 C.3     
  24 O24           17.5002    24.0963    14.6131 O.3     
  25 C25           14.6757    16.2620    12.8211 C.3     
  26 N26           14.4667    15.7569    14.1846 N.3     
  27 C27           14.1643    14.3199    14.1728 C.3     
  28 C28           13.8105    13.8602    15.5890 C.3     
  29 C29           14.9904    14.1449    16.5225 C.3     
  30 C30           15.3159    15.6404    16.4793 C.3     
  31 C31           15.6260    16.0486    15.0374 C.3     
  32 C32           14.6256    13.7493    17.9302 C.ar    
  33 C33           15.6127    13.6185    18.8891 C.ar    
  34 C34           13.3034    13.5227    18.2639 C.ar    
  35 C35           12.9689    13.1599    19.5551 C.ar    
  36 C36           13.9565    13.0231    20.5125 C.ar    
  37 C37           15.2781    13.2556    20.1803 C.ar    
  38 F38           16.1056    13.4114    16.1036 F       
  39 F39           12.0482    21.8630    13.0059 F       
  40 H40           10.0000    20.2954    13.1421 H       
  41 H41           10.0541    17.8393    13.1402 H       
  42 H42           12.1684    16.6371    12.9937 H       
  43 H43           16.7038    18.0447    12.6829 H       
  44 H44           15.9505    22.5169    12.7373 H       
  45 H45           18.8420    22.3678    13.1276 H       
  46 H46           16.9594    24.7388    12.7240 H       
  47 H47           18.8756    26.1012    13.4699 H       
  48 H48           19.8837    24.6394    13.5963 H       
  49 H49           19.9250    24.1307    10.0000 H       
  50 H50           20.5017    23.4791    11.5530 H       
  51 H51           18.6587    22.0899    10.6852 H       
  52 H52           17.6066    23.5234    10.5837 H       
  53 H53           17.3357    24.9294    15.0758 H       
  54 H54           13.9030    15.8637    12.1636 H       
  55 H55           15.6556    15.9463    12.4629 H       
  56 H56           13.3209    14.1317    13.5085 H       
  57 H57           15.0353    13.7684    13.8189 H       
  58 H58           12.9312    14.4014    15.9383 H       
  59 H59           13.6013    12.7904    15.5827 H       
  60 H60           14.4603    16.2097    16.8426 H       
  61 H61           16.1822    15.8426    17.1091 H       
  62 H62           16.4902    15.4889    14.6794 H       
  63 H63           15.8443    17.1159    15.0010 H       
  64 H64           16.6452    13.7995    18.6294 H       
  65 H65           12.5318    13.6296    17.5158 H       
  66 H66           11.9358    12.9836    19.8160 H       
  67 H67           13.6951    12.7400    21.5214 H       
  68 H68           16.0498    13.1488    20.9284 H       
@<TRIPOS>BOND
   1    1    2 1
   2    3    4 1
   3    5    6 ar
   4    5   10 ar
   5    5   40 1
   6    6    7 ar
   7    6   41 1
   8    7    8 ar
   9    7   42 1
  10    8    9 ar
  11    8   11 ar
  12    9   10 ar
  13    9   14 ar
  14   10   39 1
  15   11   12 ar
  16   11   25 1
  17   12   13 ar
  18   12   43 1
  19   13   14 ar
  20   13   15 1
  21   15   16 am
  22   15   17 2
  23   16   18 1
  24   16   44 1
  25   18   19 1
  26   18   23 1
  27   18   45 1
  28   19   20 1
  29   19   24 1
  30   19   46 1
  31   20   21 1
  32   20   47 1
  33   20   48 1
  34   21   22 1
  35   22   23 1
  36   22   49 1
  37   22   50 1
  38   23   51 1
  39   23   52 1
  40   24   53 1
  41   25   26 1
  42   25   54 1
  43   25   55 1
  44   26   27 1
  45   26   31 1
  46   27   28 1
  47   27   56 1
  48   27   57 1
  49   28   29 1
  50   28   58 1
  51   28   59 1
  52   29   30 1
  53   29   32 1
  54   29   38 1
  55   30   31 1
  56   30   60 1
  57   30   61 1
  58   31   62 1
  59   31   63 1
  60   32   33 ar
  61   32   34 ar
  62   33   37 ar
  63   33   64 1
  64   34   35 ar
  65   34   65 1
  66   35   36 ar
  67   35   66 1
  68   36   37 ar
  69   36   67 1
  70   37   68 1

#	End of record

