#	Name: ASD01000002
#	Creating user name:	WinNT
#	Creation time:	15. 06. 2019 18:54

#	Modifying user name:	WinNT
#	Modification time:	15. 06. 2019 18:54

#	Program:	/corina/corina34_cracker 3.40 0067  02.08.2006

@<TRIPOS>MOLECULE
ASD01000002
  70   73    0    0    0
SMALL
NO_CHARGES


@<TRIPOS>ATOM
   1 C1             1.1216     1.6894     1.1050 C.2     
   2 C2             1.4544     0.3615     1.6633 C.ar    
   3 C3             2.3135     0.2568     2.7583 C.ar    
   4 C4             2.6197    -0.9853     3.2747 C.ar    
   5 C5             2.0775    -2.1257     2.7093 C.ar    
   6 C6             1.2252    -2.0290     1.6237 C.ar    
   7 C7             0.9064    -0.7926     1.1012 C.ar    
   8 O8             2.0005     2.5081     0.9187 O.2     
   9 N9            -0.1557     1.9902     0.7975 N.am    
  10 C10            2.4171    -3.4793     3.2780 C.3     
  11 C11           -0.5022     3.3405     0.3470 C.3     
  12 C12           -0.7397     4.2385     1.5627 C.3     
  13 C13           -2.0617     3.8540     2.2303 C.3     
  14 C14            0.4063     4.0598     2.5605 C.3     
  15 N15           -2.8046     2.7080     0.0116 N.2     
  16 C16           -1.7548     3.2852    -0.4891 C.2     
  17 N17           -1.7279     3.8421    -1.7280 N.am    
  18 C18           -2.8266     3.8197    -2.5179 C.2     
  19 C19           -4.0329     3.1735    -1.9811 C.ar    
  20 C20           -5.2163     3.0973    -2.7131 C.ar    
  21 C21           -6.3107     2.4856    -2.1675 C.ar    
  22 C22           -6.2554     1.9391    -0.8906 C.ar    
  23 C23           -5.0969     2.0014    -0.1461 C.ar    
  24 C24           -3.9668     2.6211    -0.6824 C.ar    
  25 O25           -2.8164     4.3157    -3.6296 O.2     
  26 Cl26          -7.6621     1.1694    -0.2253 Cl      
  27 C27           -0.4981     4.4734    -2.2132 C.3     
  28 C28            0.2579     3.4999    -3.0803 C.ar    
  29 C29           -0.0748     3.3601    -4.4147 C.ar    
  30 C30            0.6186     2.4672    -5.2101 C.ar    
  31 C31            1.6450     1.7142    -4.6711 C.ar    
  32 C32            1.9783     1.8547    -3.3369 C.ar    
  33 C33            1.2877     2.7508    -2.5426 C.ar    
  34 C34           -1.1976     0.9669     0.9137 C.3     
  35 C35           -1.4810     0.3686    -0.4657 C.3     
  36 C36           -2.2359    -0.9522    -0.3034 C.3     
  37 N37           -2.6156    -1.4650    -1.6266 N.3     
  38 H38            2.7380     1.1462     3.2002 H       
  39 H39            3.2843    -1.0676     4.1220 H       
  40 H40            0.8053    -2.9230     1.1869 H       
  41 H41            0.2374    -0.7181     0.2566 H       
  42 H42            1.6955    -3.7395     4.0524 H       
  43 H43            2.3836    -4.2257     2.4844 H       
  44 H44            3.4181    -3.4517     3.7087 H       
  45 H45            0.3153     3.7454    -0.2496 H       
  46 H46           -0.7837     5.2795     1.2425 H       
  47 H47           -1.9753     2.8555     2.6589 H       
  48 H48           -2.2918     4.5696     3.0196 H       
  49 H49           -2.8597     3.8629     1.4878 H       
  50 H50            0.4503     3.0188     2.8807 H       
  51 H51            1.3481     4.3337     2.0849 H       
  52 H52            0.2371     4.6995     3.4266 H       
  53 H53           -5.2688     3.5193    -3.7058 H       
  54 H54           -7.2280     2.4268    -2.7346 H       
  55 H55           -5.0639     1.5741     0.8452 H       
  56 H56           -0.7500     5.3594    -2.7961 H       
  57 H57            0.1220     4.7612    -1.3642 H       
  58 H58           -0.8767     3.9484    -4.8358 H       
  59 H59            0.3582     2.3574    -6.2525 H       
  60 H60            2.1863     1.0160    -5.2924 H       
  61 H61            2.7800     1.2662    -2.9158 H       
  62 H62            1.5506     2.8632    -1.5011 H       
  63 H63           -0.8606     0.1802     1.5887 H       
  64 H64           -2.1080     1.4185     1.3078 H       
  65 H65           -2.0869     1.0645    -1.0461 H       
  66 H66           -0.5391     0.1876    -0.9837 H       
  67 H67           -1.5949    -1.6779     0.1972 H       
  68 H68           -3.1329    -0.7871     0.2934 H       
  69 H69           -1.8103    -1.5404    -2.2299 H       
  70 H70           -3.0927    -2.3506    -1.5480 H       
@<TRIPOS>BOND
   1    1    2 1
   2    1    8 2
   3    1    9 am
   4    2    3 ar
   5    2    7 ar
   6    3    4 ar
   7    3   38 1
   8    4    5 ar
   9    4   39 1
  10    5    6 ar
  11    5   10 1
  12    6    7 ar
  13    6   40 1
  14    7   41 1
  15    9   34 1
  16    9   11 1
  17   10   42 1
  18   10   43 1
  19   10   44 1
  20   11   12 1
  21   11   16 1
  22   11   45 1
  23   12   13 1
  24   12   14 1
  25   12   46 1
  26   13   47 1
  27   13   48 1
  28   13   49 1
  29   14   50 1
  30   14   51 1
  31   14   52 1
  32   15   16 2
  33   15   24 1
  34   16   17 1
  35   17   18 am
  36   17   27 1
  37   18   19 1
  38   18   25 2
  39   19   20 ar
  40   19   24 ar
  41   20   21 ar
  42   20   53 1
  43   21   22 ar
  44   21   54 1
  45   22   23 ar
  46   22   26 1
  47   23   24 ar
  48   23   55 1
  49   27   28 1
  50   27   56 1
  51   27   57 1
  52   28   29 ar
  53   28   33 ar
  54   29   30 ar
  55   29   58 1
  56   30   31 ar
  57   30   59 1
  58   31   32 ar
  59   31   60 1
  60   32   33 ar
  61   32   61 1
  62   33   62 1
  63   34   35 1
  64   34   63 1
  65   34   64 1
  66   35   36 1
  67   35   65 1
  68   35   66 1
  69   36   37 1
  70   36   67 1
  71   36   68 1
  72   37   69 1
  73   37   70 1

#	End of record

