#	Name: ASD03180038
#	Creating user name:	WinNT
#	Creation time:	15. 06. 2019 20:33

#	Modifying user name:	WinNT
#	Modification time:	15. 06. 2019 20:33

#	Program:	/corina/corina34_cracker 3.40 0067  02.08.2006

@<TRIPOS>MOLECULE
ASD03180038
  59   62    0    0    0
SMALL
NO_CHARGES


@<TRIPOS>ATOM
   1 C1            -0.5430     2.0735     0.3788 C.3     
   2 C2            -0.7747     0.5721     0.5574 C.3     
   3 O3            -0.0694    -0.1852    -0.4670 O.3     
   4 C4             1.2389     0.1333    -0.6329 C.2     
   5 C5             1.5267     1.5938    -0.8707 C.3     
   6 C6             0.9649     2.3789     0.3296 C.3     
   7 C7             1.1905     3.8501     0.0791 C.3     
   8 C8             3.0088     1.8810    -1.0341 C.3     
   9 C9             3.1914     3.3682    -1.3663 C.3     
  10 C10            2.6271     4.2468    -0.2523 C.3     
  11 C11            0.6859     6.2387     0.8491 C.3     
  12 C12            0.6845     4.7529     1.1768 C.2     
  13 C13            2.5922     5.7118    -0.7220 C.3     
  14 C14            2.0915     6.6316     0.3897 C.3     
  15 C15           -2.2494     0.2898     0.4285 C.2     
  16 C16           -3.1831     0.1877     1.4852 C.2     
  17 C17           -4.3785    -0.0709     0.9253 C.2     
  18 O18           -4.2192    -0.1304    -0.4070 O.3     
  19 C19           -2.9309     0.0926    -0.7143 C.2     
  20 O20            0.3271     6.9930     2.0351 O.3     
  21 C21           -0.9777     7.2433     2.2266 C.2     
  22 C22           -1.4260     8.0214     3.4368 C.3     
  23 O23           -1.7927     6.8447     1.4286 O.2     
  24 C24            3.9797     6.1416    -1.1264 C.2     
  25 O25            4.1923     7.3896    -1.5728 O.3     
  26 O26            4.9001     5.3628    -1.0488 O.2     
  27 C27            5.5531     7.7339    -1.9443 C.3     
  28 C28            1.5957     1.8770     1.6231 C.3     
  29 C29            3.5494     4.1748     0.9628 C.3     
  30 O30            2.1083    -0.6986    -0.5961 O.2     
  31 O31            0.2915     4.3600     2.2409 O.2     
  32 H32           -1.0004     2.4106    -0.5517 H       
  33 H33           -0.9842     2.6149     1.2164 H       
  34 H34           -0.4499     0.2462     1.5431 H       
  35 H35            0.9964     1.9165    -1.7738 H       
  36 H36            0.5828     4.1099    -0.8253 H       
  37 H37            3.5659     1.6186    -0.1419 H       
  38 H38            3.3984     1.2864    -1.8703 H       
  39 H39            4.2584     3.5626    -1.4901 H       
  40 H40            2.6738     3.5919    -2.3005 H       
  41 H41           -0.0313     6.4320     0.0542 H       
  42 H42            1.9274     5.7833    -1.5842 H       
  43 H43            2.0504     7.6582    -0.0027 H       
  44 H44            2.7731     6.6310     1.2356 H       
  45 H45           -2.9762     0.2959     2.5397 H       
  46 H46           -5.3086    -0.2078     1.4569 H       
  47 H47           -2.5127     0.1084    -1.7099 H       
  48 H48           -0.9674     9.0102     3.4233 H       
  49 H49           -2.5111     8.1239     3.4213 H       
  50 H50           -1.1238     7.4930     4.3409 H       
  51 H51            6.2065     7.6167    -1.0798 H       
  52 H52            5.8887     7.0752    -2.7453 H       
  53 H53            5.5856     8.7681    -2.2868 H       
  54 H54            1.3057     0.8397     1.7902 H       
  55 H55            2.6811     1.9431     1.5476 H       
  56 H56            1.2516     2.4893     2.4566 H       
  57 H57            3.7079     3.1319     1.2374 H       
  58 H58            4.5067     4.6361     0.7201 H       
  59 H59            3.0920     4.7050     1.7981 H       
@<TRIPOS>BOND
   1    1    2 1
   2    1    6 1
   3    1   32 1
   4    1   33 1
   5    2    3 1
   6    2   15 1
   7    2   34 1
   8    3    4 1
   9    4    5 1
  10    4   30 2
  11    5    8 1
  12    5    6 1
  13    5   35 1
  14    6   28 1
  15    6    7 1
  16    7   10 1
  17    7   12 1
  18    7   36 1
  19    8    9 1
  20    8   37 1
  21    8   38 1
  22    9   10 1
  23    9   39 1
  24    9   40 1
  25   10   29 1
  26   10   13 1
  27   11   12 1
  28   11   14 1
  29   11   20 1
  30   11   41 1
  31   12   31 2
  32   13   14 1
  33   13   24 1
  34   13   42 1
  35   14   43 1
  36   14   44 1
  37   15   16 1
  38   15   19 2
  39   16   17 2
  40   16   45 1
  41   17   18 1
  42   17   46 1
  43   18   19 1
  44   19   47 1
  45   20   21 1
  46   21   22 1
  47   21   23 2
  48   22   48 1
  49   22   49 1
  50   22   50 1
  51   24   25 1
  52   24   26 2
  53   25   27 1
  54   27   51 1
  55   27   52 1
  56   27   53 1
  57   28   54 1
  58   28   55 1
  59   28   56 1
  60   29   57 1
  61   29   58 1
  62   29   59 1

#	End of record

