#	Name: ASD02508256
#	Creating user name:	WinNT
#	Creation time:	15. 06. 2019 20:24

#	Modifying user name:	WinNT
#	Modification time:	15. 06. 2019 20:24

#	Program:	/corina/corina34_cracker 3.40 0067  02.08.2006

@<TRIPOS>MOLECULE
ASD02508256
  46   48    0    0    0
SMALL
NO_CHARGES


@<TRIPOS>ATOM
   1 C1             0.4318     1.0761     1.0423 C.ar    
   2 C2             0.3192    -0.2158     0.5290 C.ar    
   3 C3            -0.9341    -0.7880     0.3766 C.ar    
   4 C4            -2.0637    -0.0776     0.7330 C.ar    
   5 C5            -1.9509     1.2046     1.2419 C.ar    
   6 C6            -0.7060     1.7811     1.4025 C.ar    
   7 S7            -3.6558    -0.8068     0.5383 S.o2    
   8 N8            -3.9544    -1.7024     1.8988 N.am    
   9 C9            -3.1210    -2.7765     2.2257 C.ar    
  10 N10            1.7939     1.3736     1.0774 N.am    
  11 C11            2.4556     0.2993     0.6036 C.2     
  12 O12            1.5748    -0.6580     0.2728 O.3     
  13 O13           -4.5911     0.2629     0.5488 O.2     
  14 O14           -3.5450    -1.7318    -0.5347 O.2     
  15 C15            2.3955     2.6252     1.5441 C.3     
  16 O16            3.6633     0.2110     0.4929 O.2     
  17 C17           -2.6605    -2.9285     3.5272 C.ar    
  18 C18           -2.7571    -3.6959     1.2508 C.ar    
  19 C19           -1.9339    -4.7566     1.5761 C.ar    
  20 C20           -1.4722    -4.9034     2.8729 C.ar    
  21 C21           -1.8378    -3.9903     3.8479 C.ar    
  22 C22           -1.3336    -4.1529     5.2587 C.3     
  23 C23           -0.5857     3.1770     1.9574 C.3     
  24 F24           -0.6680    -5.9420     3.1890 F       
  25 C25            2.6700     3.5368     0.3464 C.3     
  26 O26            1.4316     3.9150    -0.2581 O.3     
  27 C27            1.5763     4.7716    -1.3927 C.3     
  28 H28           -1.0272    -1.7879    -0.0208 H       
  29 H29           -2.8386     1.7545     1.5178 H       
  30 H30           -4.7075    -1.4820     2.4690 H       
  31 H31            1.7110     3.1236     2.2306 H       
  32 H32            3.3320     2.4087     2.0581 H       
  33 H33           -2.9453    -2.2167     4.2879 H       
  34 H34           -3.1176    -3.5821     0.2391 H       
  35 H35           -1.6506    -5.4719     0.8182 H       
  36 H36           -0.3897    -3.6195     5.3709 H       
  37 H37           -2.0661    -3.7456     5.9555 H       
  38 H38           -1.1803    -5.2112     5.4701 H       
  39 H39           -0.4951     3.1302     3.0426 H       
  40 H40            0.2980     3.6592     1.5395 H       
  41 H41           -1.4730     3.7515     1.6913 H       
  42 H42            3.1977     4.4294     0.6825 H       
  43 H43            3.2824     3.0053    -0.3819 H       
  44 H44            0.5919     5.0128    -1.7938 H       
  45 H45            2.0813     5.6898    -1.0927 H       
  46 H46            2.1661     4.2657    -2.1571 H       
@<TRIPOS>BOND
   1    1    2 ar
   2    1   10 1
   3    1    6 ar
   4    2    3 ar
   5    2   12 1
   6    3    4 ar
   7    3   28 1
   8    4    5 ar
   9    4    7 1
  10    5    6 ar
  11    5   29 1
  12    6   23 1
  13    7    8 am
  14    7   13 2
  15    7   14 2
  16    8    9 1
  17    8   30 1
  18    9   17 ar
  19    9   18 ar
  20   10   11 am
  21   10   15 1
  22   11   12 1
  23   11   16 2
  24   15   25 1
  25   15   31 1
  26   15   32 1
  27   17   21 ar
  28   17   33 1
  29   18   19 ar
  30   18   34 1
  31   19   20 ar
  32   19   35 1
  33   20   21 ar
  34   20   24 1
  35   21   22 1
  36   22   36 1
  37   22   37 1
  38   22   38 1
  39   23   39 1
  40   23   40 1
  41   23   41 1
  42   25   26 1
  43   25   42 1
  44   25   43 1
  45   26   27 1
  46   27   44 1
  47   27   45 1
  48   27   46 1

#	End of record

