#	Name: ASD03740068
#	Creating user name:	WinNT
#	Creation time:	15. 06. 2019 20:46

#	Modifying user name:	WinNT
#	Modification time:	15. 06. 2019 20:46

#	Program:	/corina/corina34_cracker 3.40 0067  02.08.2006

@<TRIPOS>MOLECULE
ASD03740068
  48   51    0    0    0
SMALL
NO_CHARGES


@<TRIPOS>ATOM
   1 C1            -0.3997     2.3720    -1.0838 C.ar    
   2 C2            -0.5894     0.9988    -1.1738 C.ar    
   3 C3             0.4647     0.1376    -1.0550 C.ar    
   4 C4             1.7470     0.6370    -0.8415 C.ar    
   5 C5             1.9408     2.0289    -0.7505 C.ar    
   6 C6             0.8462     2.8897    -0.8748 C.ar    
   7 N7             2.9777     0.0548    -0.6839 N.pl3   
   8 N8             3.9379     1.0543    -0.4961 N.2     
   9 C9             3.3724     2.2302    -0.5280 C.2     
  10 O10            4.0008     3.4266    -0.3814 O.3     
  11 C11            3.2449    -1.3854    -0.7075 C.3     
  12 C12            3.5455    -1.8175    -2.1196 C.ar    
  13 C13            5.4140     3.3957    -0.1719 C.3     
  14 C14            5.9400     4.8254    -0.0302 C.3     
  15 N15            5.3715     5.4389     1.1774 N.3     
  16 C16            4.8473    -1.8026    -2.5844 C.ar    
  17 C17            5.1236    -2.1988    -3.8794 C.ar    
  18 C18            4.0970    -2.6102    -4.7106 C.ar    
  19 C19            2.7943    -2.6248    -4.2449 C.ar    
  20 C20            2.5199    -2.2338    -2.9479 C.ar    
  21 Cl21           4.4432    -3.1073    -6.3374 Cl      
  22 C22            5.9386     6.7858     1.4049 C.3     
  23 C23            6.0334     6.9844     2.9291 C.3     
  24 C24            5.5175     5.6620     3.5415 C.3     
  25 C25            5.7112     4.6468     2.3872 C.3     
  26 O26            6.3010     5.2914     4.6776 O.3     
  27 H27           -1.2451     3.0365    -1.1845 H       
  28 H28           -1.5822     0.6071    -1.3393 H       
  29 H29            0.3037    -0.9280    -1.1261 H       
  30 H30            0.9856     3.9585    -0.8067 H       
  31 H31            4.1007    -1.6067    -0.0699 H       
  32 H32            2.3703    -1.9232    -0.3414 H       
  33 H33            5.6345     2.8357     0.7369 H       
  34 H34            5.8969     2.9135    -1.0219 H       
  35 H35            7.0269     4.8065     0.0491 H       
  36 H36            5.6496     5.4077    -0.9047 H       
  37 H37            5.6486    -1.4811    -1.9355 H       
  38 H38            6.1407    -2.1868    -4.2425 H       
  39 H39            1.9925    -2.9459    -4.8933 H       
  40 H40            1.5031    -2.2452    -2.5842 H       
  41 H41            6.9313     6.8508     0.9595 H       
  42 H42            5.2841     7.5422     0.9719 H       
  43 H43            7.0680     7.1597     3.2241 H       
  44 H44            5.4037     7.8173     3.2419 H       
  45 H45            4.4641     5.7458     3.8088 H       
  46 H46            5.0301     3.8032     2.4985 H       
  47 H47            6.7453     4.3048     2.3452 H       
  48 H48            6.2758     5.9344     5.3995 H       
@<TRIPOS>BOND
   1    1    2 ar
   2    1    6 ar
   3    1   27 1
   4    2    3 ar
   5    2   28 1
   6    3    4 ar
   7    3   29 1
   8    4    5 ar
   9    4    7 1
  10    5    6 ar
  11    5    9 1
  12    6   30 1
  13    7    8 1
  14    7   11 1
  15    8    9 2
  16    9   10 1
  17   10   13 1
  18   11   12 1
  19   11   31 1
  20   11   32 1
  21   12   16 ar
  22   12   20 ar
  23   13   14 1
  24   13   33 1
  25   13   34 1
  26   14   15 1
  27   14   35 1
  28   14   36 1
  29   15   22 1
  30   15   25 1
  31   16   17 ar
  32   16   37 1
  33   17   18 ar
  34   17   38 1
  35   18   19 ar
  36   18   21 1
  37   19   20 ar
  38   19   39 1
  39   20   40 1
  40   22   23 1
  41   22   41 1
  42   22   42 1
  43   23   24 1
  44   23   43 1
  45   23   44 1
  46   24   25 1
  47   24   26 1
  48   24   45 1
  49   25   46 1
  50   25   47 1
  51   26   48 1

#	End of record

