#	Name: ASD01208082
#	Creating user name:	WinNT
#	Creation time:	15. 06. 2019 19:09

#	Modifying user name:	WinNT
#	Modification time:	15. 06. 2019 19:09

#	Program:	/corina/corina34_cracker 3.40 0067  02.08.2006

@<TRIPOS>MOLECULE
ASD01208082
  59   62    0    0    0
SMALL
NO_CHARGES


@<TRIPOS>ATOM
   1 C1            -0.0838     1.4356     0.0234 C.ar    
   2 C2             0.0199     0.0528    -0.0173 C.ar    
   3 C3            -1.1225    -0.7344     0.0255 C.ar    
   4 C4            -2.3715    -0.1418     0.1087 C.ar    
   5 C5            -2.4803     1.2492     0.1499 C.ar    
   6 C6            -1.3287     2.0365     0.1124 C.ar    
   7 C7            -3.8107     1.8860     0.2386 C.2     
   8 C8            -4.0514     3.2294     0.2853 C.2     
   9 N9            -5.0118     1.2292     0.2820 N.pl3   
  10 C10           -6.0166     2.1630     0.3625 C.2     
  11 C11           -5.4341     3.4121     0.3656 C.2     
  12 O12            1.0380     2.2016    -0.0183 O.3     
  13 C13            0.8547     3.6166    -0.0982 C.3     
  14 C14            2.0871     4.2549    -0.7421 C.3     
  15 O15            3.2199     4.0679     0.1087 O.3     
  16 C16            0.6616     4.1861     1.3087 C.3     
  17 O17           -1.0154    -2.0885    -0.0146 O.3     
  18 C18           -1.4849    -2.7333    -1.1149 C.ar    
  19 C19           -1.5162    -4.1199    -1.1582 C.ar    
  20 C20           -1.9466    -2.0126    -2.2117 C.ar    
  21 C21           -2.4163    -2.7144    -3.3104 C.ar    
  22 C22           -2.4109    -4.0963    -3.2811 C.ar    
  23 N23           -1.9712    -4.7494    -2.2231 N.ar    
  24 C24           -7.4575     1.8801     0.4295 C.2     
  25 N25           -8.0211     0.6912     0.4239 N.2     
  26 N26           -9.2984     0.8278     0.4952 N.2     
  27 C27           -9.6002     2.0948     0.5486 C.2     
  28 O28           -8.4495     2.7908     0.5141 O.3     
  29 S29           -3.0068    -4.9973    -4.6731 S.o2    
  30 C30           -1.5430    -5.2370    -5.7174 C.3     
  31 O31           -3.4396    -6.2367    -4.1292 O.2     
  32 O32           -3.9250    -4.1107    -5.2976 O.2     
  33 C33          -10.9880     2.6752     0.6388 C.3     
  34 O34          -11.3557     2.8194     2.0122 O.3     
  35 C35            4.4301     4.6299    -0.4027 C.3     
  36 H36            0.9923    -0.4126    -0.0829 H       
  37 H37           -3.2600    -0.7549     0.1413 H       
  38 H38           -1.4084     3.1131     0.1444 H       
  39 H39           -3.3062     4.0109     0.2641 H       
  40 H40           -5.1328     0.2671     0.2593 H       
  41 H41           -5.9516     4.3585     0.4200 H       
  42 H42           -0.0255     3.8354    -0.7027 H       
  43 H43            2.2766     3.7860    -1.7077 H       
  44 H44            1.9116     5.3213    -0.8842 H       
  45 H45            1.5419     3.9673     1.9132 H       
  46 H46            0.5218     5.2653     1.2477 H       
  47 H47           -0.2164     3.7313     1.7674 H       
  48 H48           -1.1637    -4.6892    -0.3108 H       
  49 H49           -1.9395    -0.9326    -2.2069 H       
  50 H50           -2.7826    -2.1878    -4.1792 H       
  51 H51           -0.7889    -5.7960    -5.1633 H       
  52 H52           -1.8223    -5.7928    -6.6125 H       
  53 H53           -1.1382    -4.2664    -6.0039 H       
  54 H54          -11.0060     3.6511     0.1535 H       
  55 H55          -11.6934     2.0092     0.1418 H       
  56 H56          -12.2394     3.1884     2.1461 H       
  57 H57            5.2420     4.4456     0.3007 H       
  58 H58            4.6681     4.1688    -1.3613 H       
  59 H59            4.3032     5.7040    -0.5378 H       
@<TRIPOS>BOND
   1    1    2 ar
   2    1   12 1
   3    1    6 ar
   4    2    3 ar
   5    2   36 1
   6    3    4 ar
   7    3   17 1
   8    4    5 ar
   9    4   37 1
  10    5    6 ar
  11    5    7 1
  12    6   38 1
  13    7    8 2
  14    7    9 1
  15    8   11 1
  16    8   39 1
  17    9   10 1
  18    9   40 1
  19   10   11 2
  20   10   24 1
  21   11   41 1
  22   12   13 1
  23   13   14 1
  24   13   16 1
  25   13   42 1
  26   14   15 1
  27   14   43 1
  28   14   44 1
  29   15   35 1
  30   16   45 1
  31   16   46 1
  32   16   47 1
  33   17   18 1
  34   18   19 ar
  35   18   20 ar
  36   19   23 ar
  37   19   48 1
  38   20   21 ar
  39   20   49 1
  40   21   22 ar
  41   21   50 1
  42   22   23 ar
  43   22   29 1
  44   24   25 2
  45   24   28 1
  46   25   26 1
  47   26   27 2
  48   27   28 1
  49   27   33 1
  50   29   30 1
  51   29   31 2
  52   29   32 2
  53   30   51 1
  54   30   52 1
  55   30   53 1
  56   33   34 1
  57   33   54 1
  58   33   55 1
  59   34   56 1
  60   35   57 1
  61   35   58 1
  62   35   59 1

#	End of record

