#	Name: ASD01912621
#	Creating user name:	WinNT
#	Creation time:	15. 06. 2019 20:00

#	Modifying user name:	WinNT
#	Modification time:	15. 06. 2019 20:00

#	Program:	/corina/corina34_cracker 3.40 0067  02.08.2006

@<TRIPOS>MOLECULE
ASD01912621
  63   67    0    0    0
SMALL
NO_CHARGES


@<TRIPOS>ATOM
   1 C1             0.0008     1.4166    -0.3898 C.ar    
   2 C2            -1.2143     1.9574     0.0311 C.ar    
   3 C3             1.2606     2.1626    -0.1737 C.2     
   4 N4             1.3790     3.5089     0.0077 N.pl3   
   5 C5             2.5141     1.6276    -0.1139 C.2     
   6 C6             3.4194     2.6796     0.1049 C.2     
   7 N7             2.7377     3.8037     0.1773 N.2     
   8 C8             4.8919     2.5461     0.2357 C.ar    
   9 C9             5.5009     1.3080     0.0389 C.ar    
  10 C10            5.6685     3.6594     0.5496 C.ar    
  11 C11            7.0368     3.5324     0.6700 C.ar    
  12 C12            7.6400     2.2971     0.4787 C.ar    
  13 C13            6.8692     1.1871     0.1605 C.ar    
  14 C14            0.2791     4.4765     0.0219 C.3     
  15 C15           -0.1681     4.7078     1.4423 C.2     
  16 N16           -1.1751     5.5656     1.7006 N.am    
  17 O17            0.3782     4.1221     2.3531 O.2     
  18 C18           -1.6272     5.8059     3.0794 C.3     
  19 C19           -1.6566     7.3182     3.3253 C.3     
  20 N20           -2.4668     7.9647     2.2844 N.3     
  21 C21           -1.8718     7.7793     0.9541 C.3     
  22 C22           -1.8471     6.2906     0.6115 C.3     
  23 C23           -2.6515     9.3079     2.5624 C.ar    
  24 N24           -3.3617    10.0499     1.7254 N.ar    
  25 C25           -3.5571    11.3366     1.9616 C.ar    
  26 C26           -3.0086    11.9060     3.1001 C.ar    
  27 C27           -2.2713    11.1010     3.9541 C.ar    
  28 N28           -2.1183     9.8200     3.6619 N.ar    
  29 C29           -2.3854     1.2571    -0.1733 C.ar    
  30 C30           -2.3563     0.0209    -0.7937 C.ar    
  31 C31           -1.1545    -0.5207    -1.2134 C.ar    
  32 C32            0.0241     0.1673    -1.0099 C.ar    
  33 O33            8.9881     2.1750     0.5979 O.3     
  34 C34            9.5429     0.8749     0.3879 C.3     
  35 C35            7.8776     4.7363     1.0091 C.3     
  36 H36           -1.2382     2.9221     0.5161 H       
  37 H37            2.7655     0.5822    -0.2159 H       
  38 H38            4.9017     0.4441    -0.2083 H       
  39 H39            5.1997     4.6209     0.6983 H       
  40 H40            7.3412     0.2271     0.0122 H       
  41 H41            0.6179     5.4180    -0.4102 H       
  42 H42           -0.5546     4.0874    -0.5627 H       
  43 H43           -2.6271     5.3935     3.2140 H       
  44 H44           -0.9364     5.3346     3.7786 H       
  45 H45           -2.0935     7.5192     4.3035 H       
  46 H46           -0.6407     7.7119     3.2924 H       
  47 H47           -2.4648     8.3148     0.2126 H       
  48 H48           -0.8529     8.1666     0.9543 H       
  49 H49           -1.3043     6.1385    -0.3213 H       
  50 H50           -2.8676     5.9215     0.5090 H       
  51 H51           -4.1367    11.9364     1.2755 H       
  52 H52           -3.1524    12.9542     3.3168 H       
  53 H53           -1.8303    11.5138     4.8494 H       
  54 H54           -3.3268     1.6747     0.1520 H       
  55 H55           -3.2756    -0.5237    -0.9508 H       
  56 H56           -1.1381    -1.4864    -1.6968 H       
  57 H57            0.9617    -0.2564    -1.3383 H       
  58 H58           10.6249     0.9171     0.5126 H       
  59 H59            9.1205     0.1784     1.1121 H       
  60 H60            9.3063     0.5376    -0.6213 H       
  61 H61            7.9730     4.8195     2.0917 H       
  62 H62            8.8666     4.6255     0.5646 H       
  63 H63            7.4012     5.6345     0.6163 H       
@<TRIPOS>BOND
   1    1    2 ar
   2    1    3 1
   3    1   32 ar
   4    2   29 ar
   5    2   36 1
   6    3    4 1
   7    3    5 2
   8    4   14 1
   9    4    7 1
  10    5    6 1
  11    5   37 1
  12    6    7 2
  13    6    8 1
  14    8    9 ar
  15    8   10 ar
  16    9   13 ar
  17    9   38 1
  18   10   11 ar
  19   10   39 1
  20   11   12 ar
  21   11   35 1
  22   12   13 ar
  23   12   33 1
  24   13   40 1
  25   14   15 1
  26   14   41 1
  27   14   42 1
  28   15   16 am
  29   15   17 2
  30   16   18 1
  31   16   22 1
  32   18   19 1
  33   18   43 1
  34   18   44 1
  35   19   20 1
  36   19   45 1
  37   19   46 1
  38   20   21 1
  39   20   23 1
  40   21   22 1
  41   21   47 1
  42   21   48 1
  43   22   49 1
  44   22   50 1
  45   23   24 ar
  46   23   28 ar
  47   24   25 ar
  48   25   26 ar
  49   25   51 1
  50   26   27 ar
  51   26   52 1
  52   27   28 ar
  53   27   53 1
  54   29   30 ar
  55   29   54 1
  56   30   31 ar
  57   30   55 1
  58   31   32 ar
  59   31   56 1
  60   32   57 1
  61   33   34 1
  62   34   58 1
  63   34   59 1
  64   34   60 1
  65   35   61 1
  66   35   62 1
  67   35   63 1

#	End of record

