#	Name: ASD01900884
#	Creating user name:	WinNT
#	Creation time:	15. 06. 2019 19:52

#	Modifying user name:	WinNT
#	Modification time:	15. 06. 2019 19:52

#	Program:	/corina/corina34_cracker 3.40 0067  02.08.2006

@<TRIPOS>MOLECULE
ASD01900884
  27   29    0    0    0
SMALL
NO_CHARGES


@<TRIPOS>ATOM
   1 C1             0.0101     1.4109     0.1571 C.ar    
   2 C2             0.0684     0.0657     0.4884 C.ar    
   3 N3             1.1883    -0.6159     0.3820 N.ar    
   4 C4             2.3093    -0.0443    -0.0476 C.ar    
   5 C5             2.3241     1.3180    -0.4022 C.ar    
   6 C6             1.1478     2.0546    -0.2953 C.ar    
   7 C7             3.6758    -0.5323    -0.2660 C.2     
   8 C8             4.3999     0.5104    -0.7169 C.2     
   9 N9             3.6037     1.6261    -0.8039 N.pl3   
  10 N10            4.1419    -1.8420    -0.0459 N.pl3   
  11 C11            5.5032    -2.1278    -0.1655 C.ar    
  12 C12            6.4489    -1.1925     0.2366 C.ar    
  13 C13            7.7949    -1.4779     0.1171 C.ar    
  14 C14            8.2025    -2.6928    -0.4019 C.ar    
  15 C15            7.2635    -3.6272    -0.8042 C.ar    
  16 C16            5.9153    -3.3504    -0.6816 C.ar    
  17 Cl17           7.7803    -5.1510    -1.4558 Cl      
  18 H18           -0.9200     1.9523     0.2474 H       
  19 H19           -0.8229    -0.4319     0.8411 H       
  20 H20            1.1242     3.1017    -0.5587 H       
  21 H21            5.4488     0.4744    -0.9718 H       
  22 H22            3.8990     2.5001    -1.1037 H       
  23 H23            3.5173    -2.5460     0.1888 H       
  24 H24            6.1316    -0.2431     0.6419 H       
  25 H25            8.5301    -0.7510     0.4293 H       
  26 H26            9.2558    -2.9132    -0.4942 H       
  27 H27            5.1828    -4.0795    -0.9950 H       
@<TRIPOS>BOND
   1    1    2 ar
   2    1    6 ar
   3    1   18 1
   4    2    3 ar
   5    2   19 1
   6    3    4 ar
   7    4    5 ar
   8    4    7 1
   9    5    6 ar
  10    5    9 1
  11    6   20 1
  12    7    8 2
  13    7   10 1
  14    8    9 1
  15    8   21 1
  16    9   22 1
  17   10   11 1
  18   10   23 1
  19   11   12 ar
  20   11   16 ar
  21   12   13 ar
  22   12   24 1
  23   13   14 ar
  24   13   25 1
  25   14   15 ar
  26   14   26 1
  27   15   16 ar
  28   15   17 1
  29   16   27 1

#	End of record

