#	Name: ASD01120317
#	Creating user name:	WinNT
#	Creation time:	15. 06. 2019 18:59

#	Modifying user name:	WinNT
#	Modification time:	15. 06. 2019 18:59

#	Program:	/corina/corina34_cracker 3.40 0067  02.08.2006

@<TRIPOS>MOLECULE
ASD01120317
  38   40    0    0    0
SMALL
NO_CHARGES


@<TRIPOS>ATOM
   1 C1            -0.0187     1.5258     0.0104 C.3     
   2 C2             0.0021    -0.0041     0.0020 C.3     
   3 O3            -1.3601    -0.5067     0.0123 O.3     
   4 C4            -1.5187    -1.8458     0.0066 C.2     
   5 O5            -0.5446    -2.5732    -0.0066 O.2     
   6 C6            -2.8680    -2.4256     0.0164 C.2     
   7 N7            -4.0485    -1.7084     0.0311 N.pl3   
   8 C8            -5.1023    -2.5919     0.0360 C.ar    
   9 C9            -4.5615    -3.8914     0.0242 C.ar    
  10 C10           -3.1562    -3.7556     0.0066 C.2     
  11 C11           -5.4274    -5.0068     0.0266 C.ar    
  12 C12           -6.8004    -4.8047     0.0406 C.ar    
  13 C13           -7.3183    -3.5192     0.0522 C.ar    
  14 C14           -6.4844    -2.4221     0.0500 C.ar    
  15 N15           -7.0597    -1.0582     0.0630 N.pl3   
  16 O16           -8.2683    -0.9072     0.0756 O.2     
  17 O17           -6.3246    -0.0871     0.0612 O.2     
  18 C18           -4.8754    -6.3799     0.0138 C.ar    
  19 C19           -5.3275    -7.3224     0.9397 C.ar    
  20 C20           -4.8144    -8.5992     0.9287 C.ar    
  21 C21           -3.8408    -8.9528    -0.0100 C.ar    
  22 C22           -3.3891    -8.0089    -0.9369 C.ar    
  23 C23           -3.9070    -6.7340    -0.9279 C.ar    
  24 C24           -3.3060   -10.2812    -0.0218 C.1     
  25 N25           -2.8818   -11.3349    -0.0312 N.1     
  26 H26            1.0039     1.9031     0.0027 H       
  27 H27           -0.5459     1.8868    -0.8726 H       
  28 H28           -0.5289     1.8773     0.9072 H       
  29 H29            0.5123    -0.3556    -0.8948 H       
  30 H30            0.5293    -0.3651     0.8851 H       
  31 H31           -4.1221    -0.7412     0.0372 H       
  32 H32           -2.4385    -4.5626    -0.0063 H       
  33 H33           -7.4684    -5.6533     0.0422 H       
  34 H34           -8.3886    -3.3755     0.0631 H       
  35 H35           -6.0797    -7.0491     1.6649 H       
  36 H36           -5.1636    -9.3279     1.6454 H       
  37 H37           -2.6367    -8.2811    -1.6622 H       
  38 H38           -3.5582    -6.0045    -1.6439 H       
@<TRIPOS>BOND
   1    1    2 1
   2    1   26 1
   3    1   27 1
   4    1   28 1
   5    2    3 1
   6    2   29 1
   7    2   30 1
   8    3    4 1
   9    4    5 2
  10    4    6 1
  11    6    7 1
  12    6   10 2
  13    7    8 1
  14    7   31 1
  15    8    9 ar
  16    8   14 ar
  17    9   10 1
  18    9   11 ar
  19   10   32 1
  20   11   12 ar
  21   11   18 1
  22   12   13 ar
  23   12   33 1
  24   13   14 ar
  25   13   34 1
  26   14   15 1
  27   15   16 2
  28   15   17 2
  29   18   19 ar
  30   18   23 ar
  31   19   20 ar
  32   19   35 1
  33   20   21 ar
  34   20   36 1
  35   21   22 ar
  36   21   24 1
  37   22   23 ar
  38   22   37 1
  39   23   38 1
  40   24   25 3

#	End of record

