#	Name: ASD01028133
#	Creating user name:	WinNT
#	Creation time:	15. 06. 2019 18:56

#	Modifying user name:	WinNT
#	Modification time:	15. 06. 2019 18:56

#	Program:	/corina/corina34_cracker 3.40 0067  02.08.2006

@<TRIPOS>MOLECULE
ASD01028133
  51   54    0    0    0
SMALL
NO_CHARGES


@<TRIPOS>ATOM
   1 C1             0.6630     1.4055     0.9659 C.ar    
   2 C2             0.6278     0.0254     1.0309 C.ar    
   3 C3             1.3636    -0.7321     0.1299 C.ar    
   4 C4             2.1369    -0.0999    -0.8389 C.ar    
   5 C5             2.1686     1.2888    -0.8997 C.ar    
   6 C6             1.4299     2.0370     0.0050 C.ar    
   7 O7             2.9382    -0.5994    -1.8259 O.3     
   8 C8             3.1375     0.4898    -2.7464 C.3     
   9 O9             2.9898     1.6626    -1.9243 O.3     
  10 N10            1.3282    -2.1303     0.1961 N.pl3   
  11 C11            2.4866    -2.8390     0.4419 C.ar    
  12 N12            3.6472    -2.2147     0.5973 N.ar    
  13 C13            2.4674    -4.2504     0.5408 C.ar    
  14 C14            3.6904    -4.9195     0.7945 C.ar    
  15 N15            4.8086    -4.1898     0.9294 N.ar    
  16 C16            4.7651    -2.8820     0.8333 C.ar    
  17 C17            1.2854    -4.9873     0.3961 C.ar    
  18 C18            1.3201    -6.3485     0.5008 C.ar    
  19 C19            2.5265    -7.0175     0.7521 C.ar    
  20 C20            3.7025    -6.3161     0.8979 C.ar    
  21 O21            0.1717    -7.0631     0.3602 O.3     
  22 C22           -0.2098    -0.6577     2.0811 C.3     
  23 N23            0.6502    -1.0809     3.1944 N.3     
  24 C24            1.2121     0.0807     3.8965 C.3     
  25 C25           -0.0812    -1.9538     4.1223 C.3     
  26 C26           -0.2109    -3.3511     3.5129 C.3     
  27 O27            1.0837    -3.9469     3.4075 O.3     
  28 O28            2.5352    -8.3722     0.8529 O.3     
  29 C29            3.7952    -8.9955     1.1098 C.3     
  30 H30            0.0860     1.9923     1.6654 H       
  31 H31            1.4537     3.1157    -0.0419 H       
  32 H32            4.1374     0.4482    -3.1784 H       
  33 H33            2.3797     0.4730    -3.5297 H       
  34 H34            0.4894    -2.6007     0.0693 H       
  35 H35            5.6838    -2.3256     0.9468 H       
  36 H36            0.3509    -4.4815     0.2031 H       
  37 H37            4.6274    -6.8392     1.0909 H       
  38 H38           -0.0148    -7.3329    -0.5495 H       
  39 H39           -0.9665     0.0349     2.4495 H       
  40 H40           -0.6969    -1.5305     1.6463 H       
  41 H41            0.4037     0.7394     4.2138 H       
  42 H42            1.7694    -0.2574     4.7701 H       
  43 H43            1.8801     0.6221     3.2266 H       
  44 H44            0.4617    -2.0176     5.0653 H       
  45 H45           -1.0743    -1.5421     4.3019 H       
  46 H46           -0.8440    -3.9682     4.1505 H       
  47 H47           -0.6577    -3.2752     2.5216 H       
  48 H48            1.0776    -4.8365     3.0283 H       
  49 H49            4.4895    -8.7573     0.3040 H       
  50 H50            4.1959    -8.6289     2.0549 H       
  51 H51            3.6613   -10.0758     1.1665 H       
@<TRIPOS>BOND
   1    1    2 ar
   2    1    6 ar
   3    1   30 1
   4    2    3 ar
   5    2   22 1
   6    3    4 ar
   7    3   10 1
   8    4    5 ar
   9    4    7 1
  10    5    6 ar
  11    5    9 1
  12    6   31 1
  13    7    8 1
  14    8    9 1
  15    8   32 1
  16    8   33 1
  17   10   11 1
  18   10   34 1
  19   11   12 ar
  20   11   13 ar
  21   12   16 ar
  22   13   14 ar
  23   13   17 ar
  24   14   15 ar
  25   14   20 ar
  26   15   16 ar
  27   16   35 1
  28   17   18 ar
  29   17   36 1
  30   18   19 ar
  31   18   21 1
  32   19   20 ar
  33   19   28 1
  34   20   37 1
  35   21   38 1
  36   22   23 1
  37   22   39 1
  38   22   40 1
  39   23   24 1
  40   23   25 1
  41   24   41 1
  42   24   42 1
  43   24   43 1
  44   25   26 1
  45   25   44 1
  46   25   45 1
  47   26   27 1
  48   26   46 1
  49   26   47 1
  50   27   48 1
  51   28   29 1
  52   29   49 1
  53   29   50 1
  54   29   51 1

#	End of record

