#	Name: ASD05730111
#	Creating user name:	WinNT
#	Creation time:	15. 06. 2019 21:02

#	Modifying user name:	WinNT
#	Modification time:	15. 06. 2019 21:02

#	Program:	/corina/corina34_cracker 3.40 0067  02.08.2006

@<TRIPOS>MOLECULE
ASD05730111
  85   91    0    0    0
SMALL
NO_CHARGES


@<TRIPOS>ATOM
   1 O1            -0.0054     1.0285     0.8564 O.3     
   2 C2             0.1350    -0.2522     0.4216 C.ar    
   3 C3            -0.8085    -0.8009    -0.4346 C.ar    
   4 C4            -0.6667    -2.1015    -0.8766 C.ar    
   5 C5             0.4210    -2.8599    -0.4641 C.ar    
   6 C6             1.3653    -2.3097     0.3927 C.ar    
   7 C7             1.2245    -1.0074     0.8300 C.ar    
   8 N8             0.5653    -4.1789    -0.9114 N.pl3   
   9 C9             1.8255    -4.6987    -1.1340 C.ar    
  10 N10            1.9411    -5.9816    -1.4420 N.ar    
  11 C11            3.1361    -6.5173    -1.6635 C.ar    
  12 C12            4.2778    -5.6927    -1.5641 C.ar    
  13 C13            4.1023    -4.3401    -1.2351 C.ar    
  14 N14            2.8768    -3.8921    -1.0367 N.ar    
  15 N15            3.2652    -7.8454    -1.9826 N.am    
  16 C16            4.4796    -8.3835    -2.2058 C.2     
  17 C17            5.6841    -7.5562    -2.1104 C.2     
  18 C18            5.5650    -6.2294    -1.7938 C.2     
  19 C19            2.0701    -8.6869    -2.0810 C.3     
  20 C20            1.5402    -8.6544    -3.5160 C.3     
  21 O21            4.5765    -9.5645    -2.4881 O.2     
  22 C22            7.0197    -8.1494    -2.3547 C.ar    
  23 C23            7.6955    -7.8856    -3.5454 C.ar    
  24 C24            7.6083    -8.9693    -1.3922 C.ar    
  25 C25            8.8521    -9.5189    -1.6255 C.ar    
  26 C26            9.5156    -9.2577    -2.8112 C.ar    
  27 C27            8.9393    -8.4410    -3.7673 C.ar    
  28 C28            0.3666    -9.6295    -3.6511 C.3     
  29 C29           -1.2046     1.7117     0.4859 C.3     
  30 S30           11.1044    -9.9622    -3.1013 S.o2    
  31 C31           10.7554   -11.5485    -3.9091 C.3     
  32 O32           11.7247    -9.0648    -4.0118 O.2     
  33 O33           11.6377   -10.1715    -1.8009 O.2     
  34 C34           11.9412   -12.4728    -4.1927 C.3     
  35 C35           10.9489   -12.8205    -3.0812 C.3     
  36 C36           -1.4777     2.8398     1.4827 C.3     
  37 C37           -2.7616     3.5713     1.0860 C.3     
  38 C38           -2.6010     4.1587    -0.3176 C.3     
  39 C39           -2.3279     3.0306    -1.3144 C.3     
  40 C40           -1.0440     2.2991    -0.9177 C.3     
  41 C41           -0.2068    -9.5325    -5.0673 C.3     
  42 O42           -0.6093    -8.1858    -5.3256 O.3     
  43 C43            0.4561    -7.2357    -5.2600 C.3     
  44 C44            1.0562    -7.2404    -3.8516 C.3     
  45 C45            7.0689    -6.9961    -4.5882 C.3     
  46 F46            7.9313    -6.8831    -5.6840 F       
  47 F47            5.8545    -7.5510    -5.0057 F       
  48 F48            6.8394    -5.7284    -4.0428 F       
  49 H49           -1.6543    -0.2110    -0.7553 H       
  50 H50           -1.4016    -2.5288    -1.5426 H       
  51 H51            2.2112    -2.8991     0.7143 H       
  52 H52            1.9588    -0.5794     1.4963 H       
  53 H53           -0.2197    -4.7276    -1.0650 H       
  54 H54            4.9517    -3.6786    -1.1495 H       
  55 H55            6.4415    -5.6029    -1.7187 H       
  56 H56            2.3241    -9.7118    -1.8107 H       
  57 H57            1.3043    -8.3113    -1.4024 H       
  58 H58            2.3346    -8.9423    -4.2046 H       
  59 H59            7.0917    -9.1734    -0.4660 H       
  60 H60            9.3090   -10.1539    -0.8809 H       
  61 H61            9.4618    -8.2410    -4.6911 H       
  62 H62            0.7147   -10.6460    -3.4679 H       
  63 H63           -0.4061    -9.3719    -2.9268 H       
  64 H64           -2.0392     1.0106     0.4930 H       
  65 H65            9.9409   -11.5381    -4.6334 H       
  66 H66           11.9066   -13.0708    -5.1034 H       
  67 H67           12.9310   -12.1277    -3.8939 H       
  68 H68           11.2860   -12.7042    -2.0511 H       
  69 H69           10.2616   -13.6473    -3.2606 H       
  70 H70           -1.5921     2.4213     2.4827 H       
  71 H71           -0.6431     3.5409     1.4756 H       
  72 H72           -3.5962     2.8702     1.0931 H       
  73 H73           -2.9562     4.3750     1.7962 H       
  74 H74           -3.5157     4.6798    -0.6002 H       
  75 H75           -1.7664     4.8598    -0.3247 H       
  76 H76           -3.1625     2.3295    -1.3073 H       
  77 H77           -2.2135     3.4491    -2.3143 H       
  78 H78           -0.2094     3.0002    -0.9248 H       
  79 H79           -0.8494     1.4955    -1.6279 H       
  80 H80            0.5544    -9.8291    -5.7888 H       
  81 H81           -1.0693   -10.1930    -5.1562 H       
  82 H82            1.2260    -7.5023    -5.9841 H       
  83 H83            0.0712    -6.2417    -5.4878 H       
  84 H84            0.2974    -6.9346    -3.1313 H       
  85 H85            1.8974    -6.5484    -3.8118 H       
@<TRIPOS>BOND
   1    1    2 1
   2    1   29 1
   3    2    3 ar
   4    2    7 ar
   5    3    4 ar
   6    3   49 1
   7    4    5 ar
   8    4   50 1
   9    5    6 ar
  10    5    8 1
  11    6    7 ar
  12    6   51 1
  13    7   52 1
  14    8    9 1
  15    8   53 1
  16    9   10 ar
  17    9   14 ar
  18   10   11 ar
  19   11   12 ar
  20   11   15 1
  21   12   13 ar
  22   12   18 1
  23   13   14 ar
  24   13   54 1
  25   15   16 am
  26   15   19 1
  27   16   17 1
  28   16   21 2
  29   17   18 2
  30   17   22 1
  31   18   55 1
  32   19   20 1
  33   19   56 1
  34   19   57 1
  35   20   28 1
  36   20   44 1
  37   20   58 1
  38   22   24 ar
  39   22   23 ar
  40   23   45 1
  41   23   27 ar
  42   24   25 ar
  43   24   59 1
  44   25   26 ar
  45   25   60 1
  46   26   27 ar
  47   26   30 1
  48   27   61 1
  49   28   41 1
  50   28   62 1
  51   28   63 1
  52   29   36 1
  53   29   40 1
  54   29   64 1
  55   30   31 1
  56   30   32 2
  57   30   33 2
  58   31   34 1
  59   31   35 1
  60   31   65 1
  61   34   35 1
  62   34   66 1
  63   34   67 1
  64   35   68 1
  65   35   69 1
  66   36   37 1
  67   36   70 1
  68   36   71 1
  69   37   38 1
  70   37   72 1
  71   37   73 1
  72   38   39 1
  73   38   74 1
  74   38   75 1
  75   39   40 1
  76   39   76 1
  77   39   77 1
  78   40   78 1
  79   40   79 1
  80   41   42 1
  81   41   80 1
  82   41   81 1
  83   42   43 1
  84   43   44 1
  85   43   82 1
  86   43   83 1
  87   44   84 1
  88   44   85 1
  89   45   46 1
  90   45   47 1
  91   45   48 1

#	End of record

