#	Name: ASD01890173
#	Creating user name:	WinNT
#	Creation time:	15. 06. 2019 19:50

#	Modifying user name:	WinNT
#	Modification time:	15. 06. 2019 19:50

#	Program:	/corina/corina34_cracker 3.40 0067  02.08.2006

@<TRIPOS>MOLECULE
ASD01890173
  33   34    0    0    0
SMALL
NO_CHARGES


@<TRIPOS>ATOM
   1 C1             0.0021    -0.0041     0.0020 C.1     
   2 C2            -0.0173     1.4278     0.0099 C.2     
   3 C3             1.1410     2.1177     0.0025 C.2     
   4 C4             1.1205     3.6246     0.0108 C.3     
   5 C5             1.2530     4.1285     1.4494 C.3     
   6 N6             0.0175    -1.1399    -0.0042 N.1     
   7 C7             2.4256     1.3991    -0.0136 C.ar    
   8 C8             2.7790     0.6161    -1.1169 C.ar    
   9 C9             3.9841    -0.0541    -1.1245 C.ar    
  10 C10            4.8429     0.0468    -0.0439 C.ar    
  11 C11            4.5001     0.8195     1.0520 C.ar    
  12 C12            3.3013     1.5006     1.0718 C.ar    
  13 C13            1.2326     5.6353     1.4576 C.ar    
  14 C14            0.0316     6.3094     1.5771 C.ar    
  15 C15            0.0122     7.6914     1.5848 C.ar    
  16 C16            1.1951     8.4001     1.4729 C.ar    
  17 C17            2.3968     7.7250     1.3533 C.ar    
  18 C18            2.4154     6.3430     1.3515 C.ar    
  19 Cl19           1.1715    10.1360     1.4818 Cl      
  20 H20           -0.9599     1.9550     0.0172 H       
  21 H21            1.9517     4.0025    -0.5846 H       
  22 H22            0.1802     3.9775    -0.4126 H       
  23 H23            0.4219     3.7506     2.0447 H       
  24 H24            2.1933     3.7755     1.8728 H       
  25 H25            2.1097     0.5361    -1.9607 H       
  26 H26            4.2583    -0.6596    -1.9757 H       
  27 H27            5.7854    -0.4804    -0.0557 H       
  28 H28            5.1754     0.8931     1.8916 H       
  29 H29            3.0374     2.1074     1.9255 H       
  30 H30           -0.8918     5.7560     1.6641 H       
  31 H31           -0.9262     8.2179     1.6777 H       
  32 H32            3.3205     8.2777     1.2660 H       
  33 H33            3.3538     5.8158     1.2626 H       
@<TRIPOS>BOND
   1    1    2 1
   2    1    6 3
   3    2    3 2
   4    2   20 1
   5    3    4 1
   6    3    7 1
   7    4    5 1
   8    4   21 1
   9    4   22 1
  10    5   13 1
  11    5   23 1
  12    5   24 1
  13    7    8 ar
  14    7   12 ar
  15    8    9 ar
  16    8   25 1
  17    9   10 ar
  18    9   26 1
  19   10   11 ar
  20   10   27 1
  21   11   12 ar
  22   11   28 1
  23   12   29 1
  24   13   14 ar
  25   13   18 ar
  26   14   15 ar
  27   14   30 1
  28   15   16 ar
  29   15   31 1
  30   16   17 ar
  31   16   19 1
  32   17   18 ar
  33   17   32 1
  34   18   33 1

#	End of record

