#	Name: ASD02030160
#	Creating user name:	WinNT
#	Creation time:	15. 06. 2019 20:14

#	Modifying user name:	WinNT
#	Modification time:	15. 06. 2019 20:14

#	Program:	/corina/corina34_cracker 3.40 0067  02.08.2006

@<TRIPOS>MOLECULE
ASD02030160
  58   61    0    0    0
SMALL
NO_CHARGES


@<TRIPOS>ATOM
   1 N1            -0.1362     1.6281    -0.2921 N.am    
   2 C2            -0.2332     0.1647    -0.3864 C.3     
   3 C3            -1.0509    -0.3500     0.8048 C.3     
   4 N4            -2.2883     0.4372     0.9001 N.am    
   5 C5            -2.1912     1.9006     0.9944 C.3     
   6 C6            -1.3734     2.4149    -0.1911 C.3     
   7 C7             1.0660     2.2373    -0.2927 C.2     
   8 C8             2.3037     1.4301    -0.2474 C.2     
   9 N9             3.5265     1.8957    -0.1090 N.2     
  10 N10            2.3777     0.0894    -0.3345 N.2     
  11 C11            3.6427    -0.2364    -0.2535 C.2     
  12 N12            4.3491     0.9039    -0.1127 N.pl3   
  13 O13            1.1327     3.4505    -0.3304 O.2     
  14 C14           -3.4905    -0.1720     0.9007 C.2     
  15 C15           -3.5715    -1.6510     0.8703 C.ar    
  16 O16           -4.5080     0.4919     0.9262 O.2     
  17 C17           -1.0293     3.8901     0.0239 C.3     
  18 C18           -2.1815     2.2551    -1.4804 C.3     
  19 N19           -2.4986    -2.3749     1.1688 N.ar    
  20 C20            5.7428     0.9948     0.0083 C.ar    
  21 C21            6.3488     2.2359     0.1482 C.ar    
  22 C22            7.7220     2.3234     0.2677 C.ar    
  23 C23            8.4942     1.1741     0.2479 C.ar    
  24 C24            7.8913    -0.0651     0.1084 C.ar    
  25 C25            6.5184    -0.1570    -0.0060 C.ar    
  26 C26            8.3804     3.6705     0.4191 C.3     
  27 F27            9.8373     1.2617     0.3645 F       
  28 C28           -2.5293    -3.6937     1.1534 C.ar    
  29 C29           -3.6972    -4.3752     0.8209 C.ar    
  30 C30           -4.8351    -3.6545     0.5041 C.ar    
  31 C31           -4.7725    -2.2688     0.5348 C.ar    
  32 O32           -1.4099    -4.3941     1.4647 O.3     
  33 C33           -0.2433    -3.6386     1.7967 C.3     
  34 H34           -0.7299    -0.1098    -1.3170 H       
  35 H35            0.7657    -0.2706    -0.3598 H       
  36 H36           -1.2968    -1.4010     0.6529 H       
  37 H37           -0.4730    -0.2357     1.7219 H       
  38 H38           -3.1902     2.3359     0.9678 H       
  39 H39           -1.6945     2.1751     1.9250 H       
  40 H40            4.0473    -1.2371    -0.2896 H       
  41 H41           -0.2739     3.9770     0.8048 H       
  42 H42           -0.6430     4.3120    -0.9039 H       
  43 H43           -1.9260     4.4324     0.3239 H       
  44 H44           -3.1060     2.8272    -1.4029 H       
  45 H45           -1.5966     2.6222    -2.3237 H       
  46 H46           -2.4175     1.2019    -1.6330 H       
  47 H47            5.7469     3.1325     0.1632 H       
  48 H48            8.4953    -0.9604     0.0929 H       
  49 H49            6.0487    -1.1235    -0.1144 H       
  50 H50            8.4549     3.9216     1.4771 H       
  51 H51            9.3784     3.6382    -0.0179 H       
  52 H52            7.7840     4.4259    -0.0925 H       
  53 H53           -3.7146    -5.4550     0.8101 H       
  54 H54           -5.7533    -4.1596     0.2428 H       
  55 H55           -5.6428    -1.6768     0.2928 H       
  56 H56            0.5775    -4.3188     2.0241 H       
  57 H57            0.0322    -3.0060     0.9529 H       
  58 H58           -0.4498    -3.0148     2.6664 H       
@<TRIPOS>BOND
   1    1    2 1
   2    1    7 am
   3    1    6 1
   4    2    3 1
   5    2   34 1
   6    2   35 1
   7    3    4 1
   8    3   36 1
   9    3   37 1
  10    4    5 1
  11    4   14 am
  12    5    6 1
  13    5   38 1
  14    5   39 1
  15    6   17 1
  16    6   18 1
  17    7    8 1
  18    7   13 2
  19    8    9 2
  20    8   10 1
  21    9   12 1
  22   10   11 2
  23   11   12 1
  24   11   40 1
  25   12   20 1
  26   14   15 1
  27   14   16 2
  28   15   19 ar
  29   15   31 ar
  30   17   41 1
  31   17   42 1
  32   17   43 1
  33   18   44 1
  34   18   45 1
  35   18   46 1
  36   19   28 ar
  37   20   21 ar
  38   20   25 ar
  39   21   22 ar
  40   21   47 1
  41   22   23 ar
  42   22   26 1
  43   23   24 ar
  44   23   27 1
  45   24   25 ar
  46   24   48 1
  47   25   49 1
  48   26   50 1
  49   26   51 1
  50   26   52 1
  51   28   29 ar
  52   28   32 1
  53   29   30 ar
  54   29   53 1
  55   30   31 ar
  56   30   54 1
  57   31   55 1
  58   32   33 1
  59   33   56 1
  60   33   57 1
  61   33   58 1

#	End of record

