#	Name: ASD00310093
#	Creating user name:	WinNT
#	Creation time:	15. 06. 2019 18:33

#	Modifying user name:	WinNT
#	Modification time:	15. 06. 2019 18:33

#	Program:	/corina/corina34_cracker 3.40 0067  02.08.2006

@<TRIPOS>MOLECULE
ASD00310093
  43   46    0    0    0
SMALL
NO_CHARGES


@<TRIPOS>ATOM
   1 N1            -0.0163     1.3500     0.0095 N.pl3   
   2 C2             0.0021    -0.0041     0.0020 C.2     
   3 C3             1.2921    -0.4483    -0.0127 C.2     
   4 C4             2.1475     0.7539    -0.0144 C.ar    
   5 C5             3.5230     0.9583    -0.0268 C.ar    
   6 C6             4.0239     2.2538    -0.0251 C.ar    
   7 C7             3.1465     3.3436    -0.0108 C.ar    
   8 C8             1.7850     3.1436     0.0020 C.ar    
   9 C9             1.2694     1.8502    -0.0001 C.ar    
  10 C10            1.7402    -1.8454    -0.0237 C.2     
  11 O11            2.9286    -2.1027    -0.0361 O.2     
  12 O12            0.8342    -2.8441    -0.0202 O.3     
  13 C13            5.4899     2.4821    -0.0378 C.ar    
  14 C14            6.0526     3.3598    -0.9621 C.ar    
  15 C15            7.4189     3.5689    -0.9689 C.ar    
  16 C16            8.2271     2.9070    -0.0584 C.ar    
  17 C17            7.6718     2.0350     0.8597 C.ar    
  18 C18            6.3077     1.8239     0.8784 C.ar    
  19 C19            9.7162     3.1380    -0.0695 C.3     
  20 C20           10.3880     2.7628    -1.4010 C.3     
  21 C21           11.2527     4.0228    -1.2293 C.3     
  22 C22           10.1117     4.5933    -0.3704 C.3     
  23 O23           10.3712     2.5902     1.0764 O.3     
  24 F24            7.9670     4.4191    -1.8643 F       
  25 Cl25           3.7800     4.9599    -0.0087 Cl      
  26 C26            1.3494    -4.2016    -0.0317 C.3     
  27 H27           -0.8206     1.8922     0.0164 H       
  28 H28           -0.8729    -0.6372     0.0073 H       
  29 H29            4.1975     0.1150    -0.0374 H       
  30 H30            1.1155     3.9910     0.0132 H       
  31 H31            5.4227     3.8754    -1.6719 H       
  32 H32            8.3063     1.5211     1.5667 H       
  33 H33            5.8754     1.1457     1.5993 H       
  34 H34           10.9564     1.8338    -1.3567 H       
  35 H35            9.7153     2.8082    -2.2574 H       
  36 H36           12.1731     3.8482    -0.6723 H       
  37 H37           11.4159     4.5701    -2.1577 H       
  38 H38            9.3635     5.1391    -0.9452 H       
  39 H39           10.4571     5.1420     0.5057 H       
  40 H40            9.9671     2.8418     1.9181 H       
  41 H41            1.9504    -4.3546    -0.9281 H       
  42 H42            1.9670    -4.3633     0.8518 H       
  43 H43            0.5175    -4.9060    -0.0274 H       
@<TRIPOS>BOND
   1    1    2 1
   2    1    9 1
   3    1   27 1
   4    2    3 2
   5    2   28 1
   6    3    4 1
   7    3   10 1
   8    4    5 ar
   9    4    9 ar
  10    5    6 ar
  11    5   29 1
  12    6    7 ar
  13    6   13 1
  14    7    8 ar
  15    7   25 1
  16    8    9 ar
  17    8   30 1
  18   10   11 2
  19   10   12 1
  20   12   26 1
  21   13   14 ar
  22   13   18 ar
  23   14   15 ar
  24   14   31 1
  25   15   16 ar
  26   15   24 1
  27   16   17 ar
  28   16   19 1
  29   17   18 ar
  30   17   32 1
  31   18   33 1
  32   19   20 1
  33   19   22 1
  34   19   23 1
  35   20   21 1
  36   20   34 1
  37   20   35 1
  38   21   22 1
  39   21   36 1
  40   21   37 1
  41   22   38 1
  42   22   39 1
  43   23   40 1
  44   26   41 1
  45   26   42 1
  46   26   43 1

#	End of record

