#	Name: ASD01208017
#	Creating user name:	WinNT
#	Creation time:	15. 06. 2019 19:09

#	Modifying user name:	WinNT
#	Modification time:	15. 06. 2019 19:09

#	Program:	/corina/corina34_cracker 3.40 0067  02.08.2006

@<TRIPOS>MOLECULE
ASD01208017
  60   62    0    0    0
SMALL
NO_CHARGES


@<TRIPOS>ATOM
   1 C1            -0.0844     1.4338     0.0275 C.ar    
   2 C2             0.0183     0.0510    -0.0132 C.ar    
   3 C3            -1.1248    -0.7352     0.0265 C.ar    
   4 C4            -2.3735    -0.1414     0.1073 C.ar    
   5 C5            -2.4811     1.2493     0.1489 C.ar    
   6 C6            -1.3291     2.0357     0.1136 C.ar    
   7 C7            -3.8116     1.8875     0.2351 C.2     
   8 C8            -4.0543     3.2437     0.2824 C.2     
   9 N9            -5.0085     1.2350     0.2756 N.pl3   
  10 C10           -6.0158     2.1712     0.3538 C.2     
  11 C11           -5.4335     3.4241     0.3588 C.2     
  12 O12            1.0381     2.1990    -0.0116 O.3     
  13 C13            0.8560     3.6142    -0.0907 C.3     
  14 C14            2.0901     4.2520    -0.7319 C.3     
  15 O15            3.2212     4.0635     0.1208 O.3     
  16 C16            0.6608     4.1828     1.3162 C.3     
  17 O17           -1.0188    -2.0893    -0.0145 O.3     
  18 C18           -1.4880    -2.7329    -1.1154 C.ar    
  19 C19           -1.9389    -2.0044    -2.2069 C.ar    
  20 C20           -1.5118    -4.1198    -1.1523 C.ar    
  21 C21           -1.9894    -4.7716    -2.2727 C.ar    
  22 C22           -2.4435    -4.0432    -3.3568 C.ar    
  23 C23           -2.4155    -2.6612    -3.3249 C.ar    
  24 S24           -3.0520    -4.8778    -4.7843 S.o2    
  25 C25           -4.8263    -5.0826    -4.4670 C.3     
  26 O26           -2.8383    -3.9577    -5.8459 O.2     
  27 O27           -2.3929    -6.1365    -4.7620 O.2     
  28 C28            4.4327     4.6250    -0.3880 C.3     
  29 C29           -7.4508     1.8886     0.4164 C.2     
  30 O30           -8.2486     2.8043     0.4836 O.2     
  31 O31           -7.8883     0.6124     0.3996 O.3     
  32 C32           -9.3015     0.4103     0.4636 C.3     
  33 C33           -9.6041    -1.0892     0.4333 C.3     
  34 H34            0.9905    -0.4151    -0.0762 H       
  35 H35           -3.2626    -0.7538     0.1377 H       
  36 H36           -1.4081     3.1123     0.1456 H       
  37 H37           -3.3094     4.0255     0.2640 H       
  38 H38           -5.1301     0.2729     0.2527 H       
  39 H39           -5.9524     4.3698     0.4126 H       
  40 H40           -0.0229     3.8341    -0.6967 H       
  41 H41            2.2810     3.7837    -1.6975 H       
  42 H42            1.9157     5.3186    -0.8736 H       
  43 H43            1.5398     3.9628     1.9221 H       
  44 H44            0.5220     5.2622     1.2558 H       
  45 H45           -0.2183     3.7283     1.7730 H       
  46 H46           -1.9177    -0.9249    -2.1823 H       
  47 H47           -1.1570    -4.6891    -0.3060 H       
  48 H48           -2.0079    -5.8510    -2.3021 H       
  49 H49           -2.7711    -2.0946    -4.1728 H       
  50 H50           -5.2881    -4.1034    -4.3403 H       
  51 H51           -5.2891    -5.5964    -5.3095 H       
  52 H52           -4.9677    -5.6711    -3.5604 H       
  53 H53            4.6722     4.1644    -1.3464 H       
  54 H54            4.3069     5.6993    -0.5225 H       
  55 H55            5.2432     4.4395     0.3168 H       
  56 H56           -9.6887     0.8405     1.3872 H       
  57 H57           -9.7768     0.8941    -0.3897 H       
  58 H58           -9.2170    -1.5194    -0.4904 H       
  59 H59           -9.1288    -1.5731     1.2866 H       
  60 H60          -10.6820    -1.2434     0.4821 H       
@<TRIPOS>BOND
   1    1    2 ar
   2    1   12 1
   3    1    6 ar
   4    2    3 ar
   5    2   34 1
   6    3    4 ar
   7    3   17 1
   8    4    5 ar
   9    4   35 1
  10    5    6 ar
  11    5    7 1
  12    6   36 1
  13    7    8 2
  14    7    9 1
  15    8   11 1
  16    8   37 1
  17    9   10 1
  18    9   38 1
  19   10   11 2
  20   10   29 1
  21   11   39 1
  22   12   13 1
  23   13   14 1
  24   13   16 1
  25   13   40 1
  26   14   15 1
  27   14   41 1
  28   14   42 1
  29   15   28 1
  30   16   43 1
  31   16   44 1
  32   16   45 1
  33   17   18 1
  34   18   19 ar
  35   18   20 ar
  36   19   23 ar
  37   19   46 1
  38   20   21 ar
  39   20   47 1
  40   21   22 ar
  41   21   48 1
  42   22   23 ar
  43   22   24 1
  44   23   49 1
  45   24   25 1
  46   24   26 2
  47   24   27 2
  48   25   50 1
  49   25   51 1
  50   25   52 1
  51   28   53 1
  52   28   54 1
  53   28   55 1
  54   29   30 2
  55   29   31 1
  56   31   32 1
  57   32   33 1
  58   32   56 1
  59   32   57 1
  60   33   58 1
  61   33   59 1
  62   33   60 1

#	End of record

