#	Name: ASD03092642
#	Creating user name:	WinNT
#	Creation time:	15. 06. 2019 20:32

#	Modifying user name:	WinNT
#	Modification time:	15. 06. 2019 20:32

#	Program:	/corina/corina34_cracker 3.40 0067  02.08.2006

@<TRIPOS>MOLECULE
ASD03092642
  52   55    0    0    0
SMALL
NO_CHARGES


@<TRIPOS>ATOM
   1 C1             1.0922     1.6360    -0.8821 C.ar    
   2 C2             1.0117     0.2397    -1.0598 C.ar    
   3 C3             1.7589    -0.6023    -0.2065 C.ar    
   4 C4             2.5439    -0.0012     0.7757 C.ar    
   5 C5             2.5632     1.3813     0.8787 C.ar    
   6 N6             1.8587     2.1437     0.0716 N.ar    
   7 N7            -0.3012     1.1560    -2.5766 N.2     
   8 N8             0.2714     2.1936    -1.8313 N.pl3   
   9 C9             0.1299     0.0076    -2.1367 C.2     
  10 C10            1.7094    -2.0727    -0.3502 C.2     
  11 O11            0.6679    -2.6186    -0.6582 O.2     
  12 N12            2.8191    -2.8081    -0.1398 N.am    
  13 C13            3.6140    -4.9137    -1.0295 C.ar    
  14 C14            2.7549    -4.2038    -0.2002 C.ar    
  15 C15            1.8291    -4.9026     0.5704 C.ar    
  16 C16            1.8042    -6.2846     0.4765 C.ar    
  17 C17            2.6916    -6.9198    -0.3718 C.ar    
  18 N18            3.5564    -6.2289    -1.0890 N.ar    
  19 C19            0.8781    -4.1735     1.4843 C.3     
  20 C20            4.6175    -4.1720    -1.8745 C.3     
  21 C21            3.4133     2.0265     1.9427 C.3     
  22 C22           -0.2561    -1.3435    -2.6814 C.3     
  23 C23            0.0160     4.4283    -0.9363 C.ar    
  24 C24            0.0458     3.5644    -2.0212 C.ar    
  25 C25           -0.1507     4.0765    -3.3022 C.ar    
  26 C26           -0.3693     5.4354    -3.4418 C.ar    
  27 C27           -0.3856     6.2387    -2.3090 C.ar    
  28 N28           -0.1953     5.7189    -1.1079 N.ar    
  29 O29           -0.5993     7.5730    -2.4361 O.3     
  30 C30           -0.6047     8.3465    -1.2345 C.3     
  31 H31            3.1313    -0.6064     1.4503 H       
  32 H32            3.6623    -2.3693     0.0535 H       
  33 H33            1.0998    -6.8591     1.0598 H       
  34 H34            2.6764    -7.9970    -0.4487 H       
  35 H35           -0.0808    -4.0441     0.9823 H       
  36 H36            0.7353    -4.7525     2.3967 H       
  37 H37            1.2918    -3.1967     1.7347 H       
  38 H38            5.5720    -4.1277    -1.3501 H       
  39 H39            4.7481    -4.6919    -2.8236 H       
  40 H40            4.2581    -3.1600    -2.0610 H       
  41 H41            4.4093     2.2199     1.5443 H       
  42 H42            2.9568     2.9669     2.2517 H       
  43 H43            3.4887     1.3597     2.8015 H       
  44 H44           -1.0719    -1.7552    -2.0873 H       
  45 H45           -0.5779    -1.2390    -3.7176 H       
  46 H46            0.6024    -2.0134    -2.6334 H       
  47 H47            0.1629     4.0391     0.0604 H       
  48 H48           -0.1324     3.4280    -4.1656 H       
  49 H49           -0.5250     5.8664    -4.4198 H       
  50 H50           -0.7857     9.3936    -1.4773 H       
  51 H51           -1.3925     7.9854    -0.5734 H       
  52 H52            0.3601     8.2506    -0.7363 H       
@<TRIPOS>BOND
   1    1    2 ar
   2    1    6 ar
   3    1    8 1
   4    2    3 ar
   5    2    9 1
   6    3    4 ar
   7    3   10 1
   8    4    5 ar
   9    4   31 1
  10    5    6 ar
  11    5   21 1
  12    7    8 1
  13    7    9 2
  14    8   24 1
  15    9   22 1
  16   10   11 2
  17   10   12 am
  18   12   14 1
  19   12   32 1
  20   13   14 ar
  21   13   18 ar
  22   13   20 1
  23   14   15 ar
  24   15   16 ar
  25   15   19 1
  26   16   17 ar
  27   16   33 1
  28   17   18 ar
  29   17   34 1
  30   19   35 1
  31   19   36 1
  32   19   37 1
  33   20   38 1
  34   20   39 1
  35   20   40 1
  36   21   41 1
  37   21   42 1
  38   21   43 1
  39   22   44 1
  40   22   45 1
  41   22   46 1
  42   23   24 ar
  43   23   28 ar
  44   23   47 1
  45   24   25 ar
  46   25   26 ar
  47   25   48 1
  48   26   27 ar
  49   26   49 1
  50   27   28 ar
  51   27   29 1
  52   29   30 1
  53   30   50 1
  54   30   51 1
  55   30   52 1

#	End of record

