#	Name: ASD01150306
#	Creating user name:	WinNT
#	Creation time:	15. 06. 2019 19:04

#	Modifying user name:	WinNT
#	Modification time:	15. 06. 2019 19:04

#	Program:	/corina/corina34_cracker 3.40 0067  02.08.2006

@<TRIPOS>MOLECULE
ASD01150306
  66   69    0    0    0
SMALL
NO_CHARGES


@<TRIPOS>ATOM
   1 N1            -0.3779     1.3064    -2.1865 N.pl3   
   2 C2            -0.3403    -0.0859    -2.0797 C.2     
   3 C3            -1.5984    -0.4697    -1.6321 C.2     
   4 N4            -2.3337     0.6358    -1.4844 N.2     
   5 C5            -1.6227     1.6968    -1.8038 C.2     
   6 C6             0.7512    -0.9295    -2.3680 C.2     
   7 C7             0.6679     2.1405    -2.6022 C.ar    
   8 C8             0.5494     2.8724    -3.7763 C.ar    
   9 C9             1.5823     3.6939    -4.1835 C.ar    
  10 C10            2.7336     3.7879    -3.4234 C.ar    
  11 C11            2.8549     3.0600    -2.2540 C.ar    
  12 C12            1.8230     2.2415    -1.8382 C.ar    
  13 N13           -2.0721     2.9967    -1.7653 N.3     
  14 C14           -3.4694     3.0575    -1.3161 C.3     
  15 C15           -1.2090     3.8270    -0.9147 C.3     
  16 O16            0.6429    -2.1345    -2.2290 O.2     
  17 O17            1.9174    -0.4016    -2.7984 O.3     
  18 C18            2.9815    -1.3154    -3.0716 C.3     
  19 C19            2.5454    -2.2943    -4.1637 C.3     
  20 C20            4.2119    -0.5387    -3.5446 C.3     
  21 C21            3.3265    -2.0917    -1.7991 C.3     
  22 N22           -2.0172    -1.7711    -1.3830 N.am    
  23 C23           -3.2719    -2.0040    -0.9495 C.2     
  24 C24           -3.7166    -3.3859    -0.6850 C.ar    
  25 C25           -5.0200    -3.6403    -0.2335 C.ar    
  26 C26           -5.3891    -4.9493    -0.0001 C.ar    
  27 C27           -4.4644    -5.9659    -0.2183 C.ar    
  28 N28           -3.2404    -5.6935    -0.6451 N.ar    
  29 C29           -2.8482    -4.4604    -0.8858 C.ar    
  30 O30           -4.8211    -7.2531     0.0096 O.3     
  31 C31           -3.8645    -8.2109    -0.1100 C.ar    
  32 C32           -2.9161    -8.3745     0.8894 C.ar    
  33 C33           -1.9448    -9.3489     0.7653 C.ar    
  34 C34           -1.9169   -10.1604    -0.3538 C.ar    
  35 C35           -2.8609    -9.9994    -1.3512 C.ar    
  36 C36           -3.8381    -9.0307    -1.2292 C.ar    
  37 O37           -4.0373    -1.0754    -0.7762 O.2     
  38 H38           -0.3494     2.7991    -4.3705 H       
  39 H39            1.4908     4.2631    -5.0967 H       
  40 H40            3.5400     4.4310    -3.7439 H       
  41 H41            3.7556     3.1349    -1.6628 H       
  42 H42            1.9181     1.6734    -0.9246 H       
  43 H43           -3.5485     2.6306    -0.3163 H       
  44 H44           -3.7993     4.0962    -1.2948 H       
  45 H45           -4.0972     2.4910    -2.0038 H       
  46 H46           -0.1935     3.8199    -1.3107 H       
  47 H47           -1.5868     4.8494    -0.9020 H       
  48 H48           -1.2063     3.4280     0.0996 H       
  49 H49            2.2996    -1.7412    -5.0703 H       
  50 H50            3.3571    -2.9913    -4.3721 H       
  51 H51            1.6688    -2.8476    -3.8268 H       
  52 H52            4.5226     0.1586    -2.7666 H       
  53 H53            5.0236    -1.2358    -3.7530 H       
  54 H54            3.9661     0.0143    -4.4511 H       
  55 H55            2.4499    -2.6451    -1.4622 H       
  56 H56            4.1381    -2.7887    -2.0075 H       
  57 H57            3.6371    -1.3944    -1.0211 H       
  58 H58           -1.4065    -2.5120    -1.5212 H       
  59 H59           -5.7174    -2.8316    -0.0721 H       
  60 H60           -6.3844    -5.1821     0.3483 H       
  61 H61           -1.8422    -4.2772    -1.2333 H       
  62 H62           -2.9370    -7.7404     1.7634 H       
  63 H63           -1.2063    -9.4766     1.5430 H       
  64 H64           -1.1562   -10.9212    -0.4492 H       
  65 H65           -2.8369   -10.6346    -2.2244 H       
  66 H66           -4.5752    -8.9053    -2.0085 H       
@<TRIPOS>BOND
   1    1    2 1
   2    1    7 1
   3    1    5 1
   4    2    3 2
   5    2    6 1
   6    3    4 1
   7    3   22 1
   8    4    5 2
   9    5   13 1
  10    6   16 2
  11    6   17 1
  12    7    8 ar
  13    7   12 ar
  14    8    9 ar
  15    8   38 1
  16    9   10 ar
  17    9   39 1
  18   10   11 ar
  19   10   40 1
  20   11   12 ar
  21   11   41 1
  22   12   42 1
  23   13   14 1
  24   13   15 1
  25   14   43 1
  26   14   44 1
  27   14   45 1
  28   15   46 1
  29   15   47 1
  30   15   48 1
  31   17   18 1
  32   18   19 1
  33   18   20 1
  34   18   21 1
  35   19   49 1
  36   19   50 1
  37   19   51 1
  38   20   52 1
  39   20   53 1
  40   20   54 1
  41   21   55 1
  42   21   56 1
  43   21   57 1
  44   22   23 am
  45   22   58 1
  46   23   37 2
  47   23   24 1
  48   24   25 ar
  49   24   29 ar
  50   25   26 ar
  51   25   59 1
  52   26   27 ar
  53   26   60 1
  54   27   28 ar
  55   27   30 1
  56   28   29 ar
  57   29   61 1
  58   30   31 1
  59   31   32 ar
  60   31   36 ar
  61   32   33 ar
  62   32   62 1
  63   33   34 ar
  64   33   63 1
  65   34   35 ar
  66   34   64 1
  67   35   36 ar
  68   35   65 1
  69   36   66 1

#	End of record

