#	Name: ASD02560144
#	Creating user name:	WinNT
#	Creation time:	15. 06. 2019 20:24

#	Modifying user name:	WinNT
#	Modification time:	15. 06. 2019 20:24

#	Program:	/corina/corina34_cracker 3.40 0067  02.08.2006

@<TRIPOS>MOLECULE
ASD02560144
  49   51    0    0    0
SMALL
NO_CHARGES


@<TRIPOS>ATOM
   1 C1            -0.0650     1.3093     0.0714 C.ar    
   2 C2            -0.0750    -0.0770     0.0493 C.ar    
   3 C3             1.1463     1.9735     0.1096 C.ar    
   4 N4             2.2824     1.3041     0.1245 N.ar    
   5 C5             2.3110    -0.0141     0.1043 C.ar    
   6 C6             1.1393    -0.7460     0.0665 C.ar    
   7 C7            -1.3748    -0.8385     0.0081 C.3     
   8 N8            -1.7650    -1.0635    -1.3859 N.pl3   
   9 C9            -1.4275    -2.1327    -2.1584 C.2     
  10 C10           -2.5441    -0.2400    -2.1573 C.2     
  11 C11           -2.6509    -0.8304    -3.3721 C.2     
  12 N12           -1.9600    -1.9802    -3.3391 N.2     
  13 C13           -0.5787    -3.2988    -1.7217 C.3     
  14 O14           -1.4291    -4.3327    -1.1595 O.3     
  15 C15           -0.8221    -5.4505    -0.7183 C.2     
  16 N16           -1.5536    -6.4491    -0.1851 N.am    
  17 O17            0.3854    -5.5591    -0.8008 O.2     
  18 C18           -3.4161    -0.2918    -4.5534 C.3     
  19 C19           -2.4409     0.0386    -5.6851 C.3     
  20 C20           -4.4182    -1.3432    -5.0343 C.3     
  21 S21           -3.2668     1.2893    -1.6641 S.3     
  22 C22           -4.8050     0.7929    -0.9625 C.ar    
  23 C23           -5.7289     1.7505    -0.5618 C.ar    
  24 C24           -6.9346     1.3580    -0.0122 C.ar    
  25 C25           -7.2224     0.0126     0.1393 C.ar    
  26 C26           -6.3042    -0.9435    -0.2588 C.ar    
  27 C27           -5.0990    -0.5572    -0.8139 C.ar    
  28 Cl28          -8.0892     2.5535     0.4891 Cl      
  29 Cl29          -6.6697    -2.6297    -0.0667 Cl      
  30 H30           -0.9920     1.8631     0.0546 H       
  31 H31            1.1627     3.0532     0.1270 H       
  32 H32            3.2609    -0.5277     0.1172 H       
  33 H33            1.1691    -1.8255     0.0505 H       
  34 H34           -1.2498    -1.7981     0.5098 H       
  35 H35           -2.1497    -0.2623     0.5139 H       
  36 H36           -0.0405    -3.6985    -2.5812 H       
  37 H37            0.1355    -2.9663    -0.9683 H       
  38 H38           -2.5175    -6.3624    -0.1193 H       
  39 H39           -1.1162    -7.2544     0.1327 H       
  40 H40           -3.9504     0.6115    -4.2589 H       
  41 H41           -1.8467    -0.8440    -5.9220 H       
  42 H42           -3.0002     0.3478    -6.5680 H       
  43 H43           -1.7809     0.8474    -5.3715 H       
  44 H44           -4.9716    -0.9535    -5.8887 H       
  45 H45           -3.8839    -2.2464    -5.3288 H       
  46 H46           -5.1129    -1.5785    -4.2281 H       
  47 H47           -5.5048     2.8004    -0.6794 H       
  48 H48           -8.1652    -0.2917     0.5694 H       
  49 H49           -4.3829    -1.3037    -1.1244 H       
@<TRIPOS>BOND
   1    1    2 ar
   2    1    3 ar
   3    1   30 1
   4    2    7 1
   5    2    6 ar
   6    3    4 ar
   7    3   31 1
   8    4    5 ar
   9    5    6 ar
  10    5   32 1
  11    6   33 1
  12    7    8 1
  13    7   34 1
  14    7   35 1
  15    8    9 1
  16    8   10 1
  17    9   13 1
  18    9   12 2
  19   10   11 2
  20   10   21 1
  21   11   12 1
  22   11   18 1
  23   13   14 1
  24   13   36 1
  25   13   37 1
  26   14   15 1
  27   15   16 am
  28   15   17 2
  29   16   38 1
  30   16   39 1
  31   18   19 1
  32   18   20 1
  33   18   40 1
  34   19   41 1
  35   19   42 1
  36   19   43 1
  37   20   44 1
  38   20   45 1
  39   20   46 1
  40   21   22 1
  41   22   23 ar
  42   22   27 ar
  43   23   24 ar
  44   23   47 1
  45   24   25 ar
  46   24   28 1
  47   25   26 ar
  48   25   48 1
  49   26   27 ar
  50   26   29 1
  51   27   49 1

#	End of record

