#	Name: ASD01000091
#	Creating user name:	WinNT
#	Creation time:	15. 06. 2019 18:54

#	Modifying user name:	WinNT
#	Modification time:	15. 06. 2019 18:54

#	Program:	/corina/corina34_cracker 3.40 0067  02.08.2006

@<TRIPOS>MOLECULE
ASD01000091
  61   64    0    0    0
SMALL
NO_CHARGES


@<TRIPOS>ATOM
   1 C1             1.0311     0.5134     0.5672 C.2     
   2 C2             0.4929    -0.6109    -0.2798 C.3     
   3 C3             1.2885    -1.8872     0.0014 C.3     
   4 C4            -1.4197    -0.5132     2.4163 C.3     
   5 C5            -1.2852    -1.5292     1.2803 C.3     
   6 N6            -0.9183    -0.8339     0.0441 N.am    
   7 C7             0.8131    -3.0009    -0.9338 C.3     
   8 C8            -2.3991    -1.0461     3.4639 C.3     
   9 N9            -2.5283    -0.0706     4.5546 N.3     
  10 C10           -1.8792    -0.3993    -0.7952 C.2     
  11 C11           -3.2921    -0.7564    -0.5492 C.ar    
  12 O12           -1.5837     0.2863    -1.7545 O.2     
  13 C13           -4.0709    -1.2858    -1.5799 C.ar    
  14 C14           -5.3887    -1.6170    -1.3442 C.ar    
  15 C15           -5.9399    -1.4249    -0.0884 C.ar    
  16 C16           -5.1727    -0.8998     0.9378 C.ar    
  17 C17           -3.8518    -0.5709     0.7163 C.ar    
  18 N18            1.9087     1.3903     0.0132 N.am    
  19 C19            2.3158     1.2330    -1.3853 C.3     
  20 C20            1.3769     2.0097    -2.2721 C.ar    
  21 C21            1.5171     3.3794    -2.3955 C.ar    
  22 C22            0.3792     1.3517    -2.9667 C.ar    
  23 C23           -0.4820     2.0641    -3.7801 C.ar    
  24 C24           -0.3457     3.4346    -3.8987 C.ar    
  25 C25            0.6559     4.0918    -3.2089 C.ar    
  26 Br26          -7.7479    -1.8811     0.2261 Br      
  27 C27            2.4051     2.4057     0.7493 C.2     
  28 C28            1.9939     2.5329     2.0977 C.2     
  29 C29            1.0938     1.6100     2.6203 C.2     
  30 N30            0.6372     0.6140     1.7977 N.2     
  31 O31            3.1934     3.1989     0.2625 O.2     
  32 S32            2.4213     3.7058     3.3358 S.3     
  33 C33            1.3778     2.9149     4.5057 C.2     
  34 C34            0.7808     1.8619     3.9605 C.2     
  35 H35            0.5868    -0.3489    -1.3336 H       
  36 H36            2.3488    -1.6990    -0.1674 H       
  37 H37            1.1337    -2.1912     1.0366 H       
  38 H38           -0.4453    -0.3533     2.8780 H       
  39 H39           -1.7920     0.4305     2.0176 H       
  40 H40           -0.5121    -2.2553     1.5319 H       
  41 H41           -2.2353    -2.0443     1.1392 H       
  42 H42           -0.2472    -3.1891    -0.7650 H       
  43 H43            0.9679    -2.6969    -1.9690 H       
  44 H44            1.3799    -3.9102    -0.7335 H       
  45 H45           -3.3735    -1.2060     3.0022 H       
  46 H46           -2.0267    -1.9898     3.8627 H       
  47 H47           -2.8103     0.8315     4.2014 H       
  48 H48           -3.1704    -0.3997     5.2599 H       
  49 H49           -3.6423    -1.4353    -2.5598 H       
  50 H50           -5.9922    -2.0266    -2.1407 H       
  51 H51           -5.6083    -0.7517     1.9149 H       
  52 H52           -3.2543    -0.1617     1.5175 H       
  53 H53            3.3308     1.6094    -1.5128 H       
  54 H54            2.2827     0.1779    -1.6569 H       
  55 H55            2.2992     3.8929    -1.8560 H       
  56 H56            0.2727     0.2809    -2.8740 H       
  57 H57           -1.2610     1.5499    -4.3233 H       
  58 H58           -1.0183     3.9911    -4.5346 H       
  59 H59            0.7624     5.1625    -3.3016 H       
  60 H60            1.2407     3.2398     5.5265 H       
  61 H61            0.0960     1.2388     4.5166 H       
@<TRIPOS>BOND
   1    1    2 1
   2    1   18 1
   3    1   30 2
   4    2    3 1
   5    2    6 1
   6    2   35 1
   7    3    7 1
   8    3   36 1
   9    3   37 1
  10    4    5 1
  11    4    8 1
  12    4   38 1
  13    4   39 1
  14    5    6 1
  15    5   40 1
  16    5   41 1
  17    6   10 am
  18    7   42 1
  19    7   43 1
  20    7   44 1
  21    8    9 1
  22    8   45 1
  23    8   46 1
  24    9   47 1
  25    9   48 1
  26   10   11 1
  27   10   12 2
  28   11   13 ar
  29   11   17 ar
  30   13   14 ar
  31   13   49 1
  32   14   15 ar
  33   14   50 1
  34   15   16 ar
  35   15   26 1
  36   16   17 ar
  37   16   51 1
  38   17   52 1
  39   18   19 1
  40   18   27 am
  41   19   20 1
  42   19   53 1
  43   19   54 1
  44   20   21 ar
  45   20   22 ar
  46   21   25 ar
  47   21   55 1
  48   22   23 ar
  49   22   56 1
  50   23   24 ar
  51   23   57 1
  52   24   25 ar
  53   24   58 1
  54   25   59 1
  55   27   28 1
  56   27   31 2
  57   28   29 2
  58   28   32 1
  59   29   30 1
  60   29   34 1
  61   32   33 1
  62   33   34 2
  63   33   60 1
  64   34   61 1

#	End of record

