#	Name: ASD03240163
#	Creating user name:	WinNT
#	Creation time:	15. 06. 2019 20:34

#	Modifying user name:	WinNT
#	Modification time:	15. 06. 2019 20:34

#	Program:	/corina/corina34_cracker 3.40 0067  02.08.2006

@<TRIPOS>MOLECULE
ASD03240163
  88   95    0    0    0
SMALL
NO_CHARGES


@<TRIPOS>ATOM
   1 C1            -0.0656     1.3840    -0.3518 C.ar    
   2 C2            -0.1100    -0.0158    -0.5873 C.ar    
   3 C3             1.1649     2.0563    -0.4106 C.ar    
   4 C4             2.2993     1.3128    -0.7003 C.ar    
   5 C5             2.1795    -0.0770    -0.9233 C.ar    
   6 N6             1.0095    -0.6851    -0.8620 N.ar    
   7 C7             3.3925    -0.8687    -1.2325 C.ar    
   8 C8             3.6256     1.9707    -0.7756 C.ar    
   9 C9             3.7942     3.1188    -1.5481 C.ar    
  10 C10            5.0313     3.7269    -1.6145 C.ar    
  11 C11            6.1027     3.1994    -0.9164 C.ar    
  12 C12            5.9414     2.0600    -0.1486 C.ar    
  13 C13            4.7076     1.4469    -0.0697 C.ar    
  14 C14            3.5118    -2.1779    -0.7667 C.ar    
  15 C15            4.6440    -2.9105    -1.0584 C.ar    
  16 C16            5.6598    -2.3490    -1.8114 C.ar    
  17 C17            5.5473    -1.0509    -2.2763 C.ar    
  18 C18            4.4176    -0.3099    -1.9956 C.ar    
  19 C19            6.8940    -3.1545    -2.1260 C.3     
  20 N20            6.6950    -3.8833    -3.3858 N.3     
  21 C21            7.9508    -4.4885    -3.8476 C.3     
  22 C22            7.7400    -5.1128    -5.2289 C.3     
  23 C23            6.6414    -6.1758    -5.1409 C.3     
  24 C24            5.3581    -5.5296    -4.6117 C.3     
  25 C25            5.6379    -4.8932    -3.2483 C.3     
  26 C26            6.3875    -6.7522    -6.5100 C.2     
  27 N27            6.9203    -7.8407    -7.0009 N.2     
  28 N28            6.4866    -8.0428    -8.1943 N.2     
  29 C29            5.6492    -7.0854    -8.5258 C.2     
  30 N30            5.5628    -6.2406    -7.4519 N.pl3   
  31 C31            4.9322    -6.9495    -9.8126 C.ar    
  32 N32            5.1202    -7.8611   -10.7586 N.ar    
  33 C33            4.4949    -7.7687   -11.9192 C.ar    
  34 C34            3.6345    -6.7035   -12.1417 C.ar    
  35 C35            3.4608    -5.7685   -11.1318 C.ar    
  36 N36            4.1119    -5.9217    -9.9921 N.ar    
  37 N37           -1.2963    -0.6347    -0.5250 N.ar    
  38 C38           -2.3912     0.0482    -0.2510 C.ar    
  39 N39           -2.3837     1.3606    -0.0254 N.ar    
  40 C40           -1.2659     2.0565    -0.0591 C.ar    
  41 N41           -3.5959    -0.6263    -0.1962 N.3     
  42 C42           -4.6994     0.2914     0.1197 C.3     
  43 C43           -6.0225    -0.4775     0.0927 C.3     
  44 N44           -5.9648    -1.5805     1.0620 N.3     
  45 C45           -4.8614    -2.4983     0.7461 C.3     
  46 C46           -3.5383    -1.7294     0.7731 C.3     
  47 C47           -7.2456    -2.2976     1.1203 C.3     
  48 C48           -7.1167    -3.4961     2.0625 C.3     
  49 O49           -6.8294    -3.0345     3.3840 O.3     
  50 H50            1.2266     3.1203    -0.2359 H       
  51 H51            2.9585     3.5314    -2.0939 H       
  52 H52            5.1632     4.6162    -2.2130 H       
  53 H53            7.0689     3.6786    -0.9714 H       
  54 H54            6.7816     1.6522     0.3937 H       
  55 H55            4.5828     0.5574     0.5301 H       
  56 H56            2.7197    -2.6172    -0.1785 H       
  57 H57            4.7377    -3.9243    -0.6979 H       
  58 H58            6.3436    -0.6179    -2.8636 H       
  59 H59            4.3310     0.7034    -2.3591 H       
  60 H60            7.7491    -2.4857    -2.2242 H       
  61 H61            7.0791    -3.8651    -1.3205 H       
  62 H62            8.7224    -3.7212    -3.9098 H       
  63 H63            8.2623    -5.2604    -3.1439 H       
  64 H64            7.4419    -4.3390    -5.9363 H       
  65 H65            8.6681    -5.5755    -5.5645 H       
  66 H66            6.9559    -6.9694    -4.4632 H       
  67 H67            5.0225    -4.7624    -5.3094 H       
  68 H68            4.5844    -6.2902    -4.5064 H       
  69 H69            5.9602    -5.6632    -2.5474 H       
  70 H70            4.7297    -4.4199    -2.8752 H       
  71 H71            5.0247    -5.4365    -7.3829 H       
  72 H72            4.6521    -8.5135   -12.6854 H       
  73 H73            3.1113    -6.6042   -13.0813 H       
  74 H74            2.7979    -4.9277   -11.2736 H       
  75 H75           -1.2720     3.1205     0.1258 H       
  76 H76           -4.5461     0.7167     1.1115 H       
  77 H77           -4.7291     1.0923    -0.6191 H       
  78 H78           -6.8392     0.1949     0.3551 H       
  79 H79           -6.1889    -0.8798    -0.9066 H       
  80 H80           -4.8317    -3.2992     1.4849 H       
  81 H81           -5.0147    -2.9235    -0.2457 H       
  82 H82           -2.7215    -2.4018     0.5107 H       
  83 H83           -3.3718    -1.3271     1.7724 H       
  84 H84           -8.0211    -1.6267     1.4899 H       
  85 H85           -7.5123    -2.6466     0.1227 H       
  86 H86           -8.0520    -4.0558     2.0684 H       
  87 H87           -6.3087    -4.1425     1.7197 H       
  88 H88           -6.7342    -3.7423     4.0358 H       
@<TRIPOS>BOND
   1    1    2 ar
   2    1    3 ar
   3    1   40 ar
   4    2   37 ar
   5    2    6 ar
   6    3    4 ar
   7    3   50 1
   8    4    5 ar
   9    4    8 1
  10    5    6 ar
  11    5    7 1
  12    7   14 ar
  13    7   18 ar
  14    8    9 ar
  15    8   13 ar
  16    9   10 ar
  17    9   51 1
  18   10   11 ar
  19   10   52 1
  20   11   12 ar
  21   11   53 1
  22   12   13 ar
  23   12   54 1
  24   13   55 1
  25   14   15 ar
  26   14   56 1
  27   15   16 ar
  28   15   57 1
  29   16   17 ar
  30   16   19 1
  31   17   18 ar
  32   17   58 1
  33   18   59 1
  34   19   20 1
  35   19   60 1
  36   19   61 1
  37   20   21 1
  38   20   25 1
  39   21   22 1
  40   21   62 1
  41   21   63 1
  42   22   23 1
  43   22   64 1
  44   22   65 1
  45   23   24 1
  46   23   26 1
  47   23   66 1
  48   24   25 1
  49   24   67 1
  50   24   68 1
  51   25   69 1
  52   25   70 1
  53   26   27 2
  54   26   30 1
  55   27   28 1
  56   28   29 2
  57   29   30 1
  58   29   31 1
  59   30   71 1
  60   31   32 ar
  61   31   36 ar
  62   32   33 ar
  63   33   34 ar
  64   33   72 1
  65   34   35 ar
  66   34   73 1
  67   35   36 ar
  68   35   74 1
  69   37   38 ar
  70   38   39 ar
  71   38   41 1
  72   39   40 ar
  73   40   75 1
  74   41   42 1
  75   41   46 1
  76   42   43 1
  77   42   76 1
  78   42   77 1
  79   43   44 1
  80   43   78 1
  81   43   79 1
  82   44   45 1
  83   44   47 1
  84   45   46 1
  85   45   80 1
  86   45   81 1
  87   46   82 1
  88   46   83 1
  89   47   48 1
  90   47   84 1
  91   47   85 1
  92   48   49 1
  93   48   86 1
  94   48   87 1
  95   49   88 1

#	End of record

