#	Name: ASD01916015
#	Creating user name:	WinNT
#	Creation time:	15. 06. 2019 20:06

#	Modifying user name:	WinNT
#	Modification time:	15. 06. 2019 20:06

#	Program:	/corina/corina34_cracker 3.40 0067  02.08.2006

@<TRIPOS>MOLECULE
ASD01916015
  43   45    0    0    0
SMALL
NO_CHARGES


@<TRIPOS>ATOM
   1 C1            -1.1537     2.9860     2.0986 C.ar    
   2 C2            -0.6074     1.7929     1.6045 C.ar    
   3 C3            -1.4696     0.8237     1.1301 C.ar    
   4 C4            -2.8444     1.0619     1.1579 C.ar    
   5 C5            -3.7742     0.0287     0.6520 C.2     
   6 N6            -5.1039     0.1844     0.8073 N.am    
   7 O7            -3.3390    -0.9609     0.0962 O.2     
   8 C8            -6.0292    -0.7823     0.2111 C.3     
   9 C9            -0.3019     4.0215     2.6012 C.1     
  10 C10            0.3965     4.8705     3.0132 C.1     
  11 C11            1.2483     5.9061     3.5158 C.ar    
  12 C12            0.6967     7.0926     4.0067 C.ar    
  13 C13            3.4493     6.7345     4.0085 C.ar    
  14 C14            1.5236     8.0856     4.4891 C.ar    
  15 N15           -3.3296     2.2040     1.6330 N.ar    
  16 C16           -2.5452     3.1526     2.0882 C.ar    
  17 C17            2.6355     5.7329     3.5230 C.ar    
  18 C18            2.8960     7.9094     4.4874 C.ar    
  19 C19           -5.6239     1.3205     1.5723 C.3     
  20 C20           -5.8016    -2.2431     0.6049 C.3     
  21 C21           -7.4724    -0.3294    -0.0193 C.3     
  22 C22           -6.5250    -0.5025    -1.2091 C.3     
  23 C23            0.9309     9.3658     5.0189 C.3     
  24 F24           -5.9054    -2.3732     1.9940 F       
  25 F25           -6.7651    -3.0480    -0.0122 F       
  26 F26           -4.5260    -2.6437     0.1931 F       
  27 H27            0.4611     1.6357     1.5949 H       
  28 H28           -1.0843    -0.1075     0.7417 H       
  29 H29           -0.3742     7.2318     4.0080 H       
  30 H30            4.5214     6.6041     4.0102 H       
  31 H31           -2.9768     4.0673     2.4669 H       
  32 H32            3.0686     4.8167     3.1497 H       
  33 H33            3.5385     8.6904     4.8664 H       
  34 H34           -5.6996     2.1921     0.9222 H       
  35 H35           -6.6103     1.0732     1.9647 H       
  36 H36           -4.9488     1.5413     2.3990 H       
  37 H37           -8.2596    -1.0722     0.1094 H       
  38 H38           -7.7334     0.6878     0.2728 H       
  39 H39           -6.1630     0.4010    -1.6997 H       
  40 H40           -6.6893    -1.3591    -1.8628 H       
  41 H41            0.7358     9.2615     6.0863 H       
  42 H42            1.6311    10.1852     4.8560 H       
  43 H43           -0.0029     9.5768     4.4978 H       
@<TRIPOS>BOND
   1    1    2 ar
   2    1    9 1
   3    1   16 ar
   4    2    3 ar
   5    2   27 1
   6    3    4 ar
   7    3   28 1
   8    4   15 ar
   9    4    5 1
  10    5    6 am
  11    5    7 2
  12    6    8 1
  13    6   19 1
  14    8   20 1
  15    8   21 1
  16    8   22 1
  17    9   10 3
  18   10   11 1
  19   11   12 ar
  20   11   17 ar
  21   12   14 ar
  22   12   29 1
  23   13   18 ar
  24   13   17 ar
  25   13   30 1
  26   14   23 1
  27   14   18 ar
  28   15   16 ar
  29   16   31 1
  30   17   32 1
  31   18   33 1
  32   19   34 1
  33   19   35 1
  34   19   36 1
  35   20   24 1
  36   20   25 1
  37   20   26 1
  38   21   22 1
  39   21   37 1
  40   21   38 1
  41   22   39 1
  42   22   40 1
  43   23   41 1
  44   23   42 1
  45   23   43 1

#	End of record

