#	Name: ASD05490103
#	Creating user name:	WinNT
#	Creation time:	15. 06. 2019 21:01

#	Modifying user name:	WinNT
#	Modification time:	15. 06. 2019 21:01

#	Program:	/corina/corina34_cracker 3.40 0067  02.08.2006

@<TRIPOS>MOLECULE
ASD05490103
  71   75    0    0    0
SMALL
NO_CHARGES


@<TRIPOS>ATOM
   1 N1            -0.0178     1.4608     0.0101 N.pl3   
   2 O2             4.5582     2.8949    -0.0261 O.3     
   3 N3             2.7941     4.3826    -0.0015 N.ar    
   4 C4             1.4952     4.6638     0.0118 C.ar    
   5 C5             3.2233     3.1292    -0.0123 C.ar    
   6 N6             2.3949     2.0994    -0.0093 N.ar    
   7 C7             1.0795     2.2895     0.0040 C.ar    
   8 C8             0.5781     3.6006     0.0150 C.ar    
   9 N9             1.0558     5.9772     0.0226 N.pl3   
  10 C10           -1.1306     2.2546     0.0190 C.2     
  11 N11           -0.7773     3.5129     0.0270 N.2     
  12 C12            5.4173     4.0368    -0.0280 C.3     
  13 C13            6.8766     3.5771    -0.0442 C.3     
  14 O14            7.1483     2.8975    -1.2715 O.3     
  15 C15            8.4917     2.4246    -1.3889 C.3     
  16 C16            0.0021    -0.0041     0.0020 C.3     
  17 C17            0.0225    -0.5140     1.4200 C.ar    
  18 C18           -1.1674    -0.7635     2.0797 C.ar    
  19 C19           -1.1546    -1.2305     3.3784 C.ar    
  20 C20            0.0599    -1.4511     4.0247 C.ar    
  21 C21            1.2555    -1.1986     3.3552 C.ar    
  22 C22            1.2310    -0.7362     2.0550 C.ar    
  23 C23            0.0800    -1.9528     5.4211 C.ar    
  24 C24            1.2946    -2.1734     6.0675 C.ar    
  25 C25           -1.1155    -2.1995     6.0926 C.ar    
  26 C26           -1.0910    -2.6661     7.3915 C.ar    
  27 C27            0.1173    -2.8887     8.0263 C.ar    
  28 C28            1.3074    -2.6400     7.3662 C.ar    
  29 C29            1.9872    -5.2291     8.1622 C.3     
  30 C30            2.6770    -6.4920     8.7107 C.3     
  31 C31            4.1889    -6.1707     8.6826 C.3     
  32 C32            4.2139    -4.6216     8.6762 C.3     
  33 N33            3.0557    -4.2666     7.8168 N.3     
  34 C34            2.6203    -2.8856     8.0642 C.3     
  35 O35           -2.4073     1.8048     0.0270 O.3     
  36 C36           -3.4422     2.7900     0.0462 C.3     
  37 C37           -2.3833    -2.9329     8.1194 C.3     
  38 F38           -3.4617    -2.6354     7.2792 F       
  39 F39           -2.4396    -4.2805     8.4910 F       
  40 F40           -2.4484    -2.1305     9.2635 F       
  41 H41            1.6985     6.7037     0.0206 H       
  42 H42            0.1053     6.1706     0.0323 H       
  43 H43            5.2168     4.6408    -0.9129 H       
  44 H44            5.2335     4.6312     0.8670 H       
  45 H45            7.5315     4.4439     0.0439 H       
  46 H46            7.0539     2.9012     0.7924 H       
  47 H47            8.6170     1.9208    -2.3473 H       
  48 H48            9.1802     3.2675    -1.3287 H       
  49 H49            8.7025     1.7248    -0.5803 H       
  50 H50           -0.8878    -0.3767    -0.5053 H       
  51 H51            0.8920    -0.3525    -0.5222 H       
  52 H52           -2.1082    -0.5921     1.5778 H       
  53 H53           -2.0843    -1.4243     3.8928 H       
  54 H54            2.1997    -1.3679     3.8515 H       
  55 H55            2.1571    -0.5405     1.5350 H       
  56 H56            2.2243    -1.9799     5.5530 H       
  57 H57           -2.0597    -2.0256     5.5980 H       
  58 H58            0.1319    -3.2535     9.0427 H       
  59 H59            1.4099    -5.4784     7.2719 H       
  60 H60            1.3346    -4.8020     8.9236 H       
  61 H61            2.3507    -6.6878     9.7322 H       
  62 H62            2.4603    -7.3488     8.0727 H       
  63 H63            4.6827    -6.5608     9.5726 H       
  64 H64            4.6509    -6.5677     7.7787 H       
  65 H65            4.0789    -4.2305     9.6846 H       
  66 H66            5.1430    -4.2536     8.2409 H       
  67 H67            3.3705    -2.1939     7.6810 H       
  68 H68            2.4965    -2.7301     9.1360 H       
  69 H69           -4.4139     2.2962     0.0508 H       
  70 H70           -3.3425     3.4042     0.9411 H       
  71 H71           -3.3595     3.4211    -0.8387 H       
@<TRIPOS>BOND
   1    1   16 1
   2    1    7 1
   3    1   10 1
   4    2   12 1
   5    2    5 1
   6    3    4 ar
   7    3    5 ar
   8    4    9 1
   9    4    8 ar
  10    5    6 ar
  11    6    7 ar
  12    7    8 ar
  13    8   11 1
  14    9   41 1
  15    9   42 1
  16   10   11 2
  17   10   35 1
  18   12   13 1
  19   12   43 1
  20   12   44 1
  21   13   14 1
  22   13   45 1
  23   13   46 1
  24   14   15 1
  25   15   47 1
  26   15   48 1
  27   15   49 1
  28   16   17 1
  29   16   50 1
  30   16   51 1
  31   17   18 ar
  32   17   22 ar
  33   18   19 ar
  34   18   52 1
  35   19   20 ar
  36   19   53 1
  37   20   21 ar
  38   20   23 1
  39   21   22 ar
  40   21   54 1
  41   22   55 1
  42   23   24 ar
  43   23   25 ar
  44   24   28 ar
  45   24   56 1
  46   25   26 ar
  47   25   57 1
  48   26   27 ar
  49   26   37 1
  50   27   28 ar
  51   27   58 1
  52   28   34 1
  53   29   30 1
  54   29   33 1
  55   29   59 1
  56   29   60 1
  57   30   31 1
  58   30   61 1
  59   30   62 1
  60   31   32 1
  61   31   63 1
  62   31   64 1
  63   32   33 1
  64   32   65 1
  65   32   66 1
  66   33   34 1
  67   34   67 1
  68   34   68 1
  69   35   36 1
  70   36   69 1
  71   36   70 1
  72   36   71 1
  73   37   38 1
  74   37   39 1
  75   37   40 1

#	End of record

