#	Name: ASD04880204
#	Creating user name:	WinNT
#	Creation time:	15. 06. 2019 20:53

#	Modifying user name:	WinNT
#	Modification time:	15. 06. 2019 20:53

#	Program:	/corina/corina34_cracker 3.40 0067  02.08.2006

@<TRIPOS>MOLECULE
ASD04880204
  29   31    0    0    0
SMALL
NO_CHARGES


@<TRIPOS>ATOM
   1 C1            -0.0105     1.5405     0.0947 C.3     
   2 C2             0.0062     0.0004     0.0301 C.3     
   3 N3             1.4404    -0.3292     0.0242 N.am    
   4 N4             2.1747     0.8537     0.0780 N.2     
   5 C5             1.4529     1.9200     0.1187 C.2     
   6 C6             1.9737     3.2986     0.1795 C.2     
   7 C7             1.9589    -1.5723    -0.0247 C.2     
   8 O8             1.2250    -2.5400     0.0353 O.2     
   9 C9             3.4196    -1.7593    -0.1513 C.ar    
  10 C10            3.9730    -3.0373    -0.0587 C.ar    
  11 C11            5.3372    -3.2064    -0.1780 C.ar    
  12 C12            6.1575    -2.1130    -0.3891 C.ar    
  13 C13            5.6156    -0.8408    -0.4822 C.ar    
  14 C14            4.2506    -0.6591    -0.3697 C.ar    
  15 F15            6.4229     0.2228    -0.6880 F       
  16 C16            1.2657     4.4709     0.2304 C.2     
  17 C17            3.3335     3.7276     0.2056 C.2     
  18 N18            3.3041     5.0257     0.2597 N.2     
  19 O19            2.1744     5.4541     0.2741 O.3     
  20 H20           -0.4985     1.9549    -0.7875 H       
  21 H21           -0.5085     1.8797     1.0030 H       
  22 H22           -0.4817    -0.4256     0.9068 H       
  23 H23           -0.4717    -0.3504    -0.8846 H       
  24 H24            3.3345    -3.8925     0.1065 H       
  25 H25            5.7657    -4.1952    -0.1060 H       
  26 H26            7.2246    -2.2512    -0.4814 H       
  27 H27            3.8285     0.3323    -0.4426 H       
  28 H28            0.1913     4.5801     0.2344 H       
  29 H29            4.2119     3.0995     0.1849 H       
@<TRIPOS>BOND
   1    1    2 1
   2    1    5 1
   3    1   20 1
   4    1   21 1
   5    2    3 1
   6    2   22 1
   7    2   23 1
   8    3    4 1
   9    3    7 am
  10    4    5 2
  11    5    6 1
  12    6   17 1
  13    6   16 2
  14    7    8 2
  15    7    9 1
  16    9   10 ar
  17    9   14 ar
  18   10   11 ar
  19   10   24 1
  20   11   12 ar
  21   11   25 1
  22   12   13 ar
  23   12   26 1
  24   13   14 ar
  25   13   15 1
  26   14   27 1
  27   16   19 1
  28   16   28 1
  29   17   18 2
  30   17   29 1
  31   18   19 1

#	End of record

