#	Name: ASD07730024
#	Creating user name:	WinNT
#	Creation time:	15. 06. 2019 21:11

#	Modifying user name:	WinNT
#	Modification time:	15. 06. 2019 21:11

#	Program:	/corina/corina34_cracker 3.40 0067  02.08.2006

@<TRIPOS>MOLECULE
ASD07730024
  31   34    0    0    0
SMALL
NO_CHARGES


@<TRIPOS>ATOM
   1 C1             0.2384     0.9929     1.7692 C.2     
   2 C2             0.1679    -0.2698     1.1536 C.2     
   3 C3             1.2808    -0.7819     0.5630 C.2     
   4 C4             2.4838    -0.0524     0.5719 C.2     
   5 N5             2.5489     1.1279     1.1476 N.2     
   6 N6             1.4230     1.6775     1.7605 N.pl3   
   7 N7             1.1645     2.8743     2.4406 N.2     
   8 N8            -0.0754     2.8459     2.7964 N.2     
   9 N9            -0.6370     1.7558     2.4092 N.2     
  10 N10            3.6165    -0.5857    -0.0343 N.pl3   
  11 C11            8.4850     2.2869    -0.4032 C.3     
  12 C12            9.4216     1.0900    -0.6724 C.3     
  13 C13            8.6329    -0.0906    -0.0673 C.3     
  14 C14            7.1794     0.3265    -0.1372 C.ar    
  15 C15            6.0250    -0.4300    -0.0388 C.ar    
  16 C16            4.7818     0.1794    -0.1334 C.ar    
  17 C17            4.6996     1.5527    -0.3274 C.ar    
  18 C18            5.8533     2.3028    -0.4250 C.ar    
  19 C19            7.0942     1.6932    -0.3303 C.ar    
  20 H20           -0.7580    -0.8258     1.1504 H       
  21 H21            1.2411    -1.7504     0.0866 H       
  22 H22            3.5976    -1.4886    -0.3882 H       
  23 H23            8.7428     2.7636     0.5426 H       
  24 H24            8.5467     3.0065    -1.2195 H       
  25 H25            9.5710     0.9481    -1.7427 H       
  26 H26           10.3751     1.2216    -0.1610 H       
  27 H27            8.7957    -0.9946    -0.6542 H       
  28 H28            8.9305    -0.2528     0.9687 H       
  29 H29            6.0917    -1.4973     0.1123 H       
  30 H30            3.7346     2.0319    -0.4021 H       
  31 H31            5.7891     3.3703    -0.5762 H       
@<TRIPOS>BOND
   1    1    2 1
   2    1    6 1
   3    1    9 2
   4    2    3 2
   5    2   20 1
   6    3    4 1
   7    3   21 1
   8    4    5 2
   9    4   10 1
  10    5    6 1
  11    6    7 1
  12    7    8 2
  13    8    9 1
  14   10   16 1
  15   10   22 1
  16   11   12 1
  17   11   19 1
  18   11   23 1
  19   11   24 1
  20   12   13 1
  21   12   25 1
  22   12   26 1
  23   13   14 1
  24   13   27 1
  25   13   28 1
  26   14   15 ar
  27   14   19 ar
  28   15   16 ar
  29   15   29 1
  30   16   17 ar
  31   17   18 ar
  32   17   30 1
  33   18   19 ar
  34   18   31 1

#	End of record

