#	Name: ASD02039009
#	Creating user name:	WinNT
#	Creation time:	15. 06. 2019 20:17

#	Modifying user name:	WinNT
#	Modification time:	15. 06. 2019 20:17

#	Program:	/corina/corina34_cracker 3.40 0067  02.08.2006

@<TRIPOS>MOLECULE
ASD02039009
  44   46    0    0    0
SMALL
NO_CHARGES


@<TRIPOS>ATOM
   1 N1             0.2762     1.2606     0.4905 N.2     
   2 N2             0.2932    -0.0257     0.4715 N.2     
   3 C3             1.4961     1.7127     0.3314 C.2     
   4 O4             2.3050     0.6442     0.2081 O.3     
   5 C5             1.5134    -0.4423     0.3011 C.2     
   6 N6             1.8805     3.0403     0.2966 N.pl3   
   7 C7             1.5512     5.4434     0.3727 C.ar    
   8 C8             1.9609    -1.8792     0.2227 C.3     
   9 O9             1.9224    -2.3166    -1.1372 O.3     
  10 C10            2.2989    -3.6000    -1.3839 C.ar    
  11 C11            2.2850    -4.0890    -2.6818 C.ar    
  12 C12            2.7020    -4.4172    -0.3383 C.ar    
  13 C13            3.0849    -5.7205    -0.5880 C.ar    
  14 C14            3.0659    -6.2126    -1.8863 C.ar    
  15 C15            2.6672    -5.3921    -2.9332 C.ar    
  16 C16            1.6990     6.0758    -0.8472 C.ar    
  17 C17            2.0160     6.0476     1.5263 C.ar    
  18 C18            2.6290     7.2845     1.4607 C.ar    
  19 C19            2.7779     7.9189     0.2403 C.ar    
  20 C20            2.3124     7.3140    -0.9147 C.ar    
  21 Cl21           3.5473     9.4728     0.1574 Cl      
  22 N22            3.4538    -7.5330    -2.1402 N.am    
  23 S23            2.4395    -8.7832    -1.7521 S.o2    
  24 O24            3.1447    -9.9468    -2.1620 O.2     
  25 O25            2.1201    -8.5637    -0.3849 O.2     
  26 Cl26           2.4990     8.1084    -2.4470 Cl      
  27 C27            0.9795    -8.5226    -2.7966 C.3     
  28 C28            0.8774     4.0975     0.4465 C.3     
  29 H29            2.8143     3.2718     0.1729 H       
  30 H30            2.9789    -1.9641     0.6029 H       
  31 H31            1.2959    -2.5001     0.8230 H       
  32 H32            1.9749    -3.4507    -3.4959 H       
  33 H33            2.7167    -4.0343     0.6714 H       
  34 H34            3.3994    -6.3565     0.2262 H       
  35 H35            2.6521    -5.7741    -3.9433 H       
  36 H36            1.3360     5.6031    -1.7479 H       
  37 H37            1.8997     5.5527     2.4792 H       
  38 H38            2.9916     7.7560     2.3622 H       
  39 H39            4.3167    -7.7159    -2.5436 H       
  40 H40            1.2864    -8.4589    -3.8406 H       
  41 H41            0.2893    -9.3568    -2.6711 H       
  42 H42            0.4855    -7.5955    -2.5059 H       
  43 H43            0.1409     4.0155    -0.3528 H       
  44 H44            0.3802     3.9924     1.4108 H       
@<TRIPOS>BOND
   1    1    2 1
   2    1    3 2
   3    2    5 2
   4    3    4 1
   5    3    6 1
   6    4    5 1
   7    5    8 1
   8    6   28 1
   9    6   29 1
  10    7   16 ar
  11    7   17 ar
  12    7   28 1
  13    8    9 1
  14    8   30 1
  15    8   31 1
  16    9   10 1
  17   10   11 ar
  18   10   12 ar
  19   11   15 ar
  20   11   32 1
  21   12   13 ar
  22   12   33 1
  23   13   14 ar
  24   13   34 1
  25   14   15 ar
  26   14   22 1
  27   15   35 1
  28   16   20 ar
  29   16   36 1
  30   17   18 ar
  31   17   37 1
  32   18   19 ar
  33   18   38 1
  34   19   20 ar
  35   19   21 1
  36   20   26 1
  37   22   23 am
  38   22   39 1
  39   23   24 2
  40   23   25 2
  41   23   27 1
  42   27   40 1
  43   27   41 1
  44   27   42 1
  45   28   43 1
  46   28   44 1

#	End of record

