#	Name: ASD01412031
#	Creating user name:	WinNT
#	Creation time:	15. 06. 2019 19:19

#	Modifying user name:	WinNT
#	Modification time:	15. 06. 2019 19:19

#	Program:	/corina/corina34_cracker 3.40 0067  02.08.2006

@<TRIPOS>MOLECULE
ASD01412031
  80   84    0    0    0
SMALL
NO_CHARGES


@<TRIPOS>ATOM
   1 C1            -1.5057     2.4260     2.6873 C.ar    
   2 C2            -1.2919     1.0913     2.2877 C.ar    
   3 C3            -2.3809     0.2881     1.9193 C.ar    
   4 C4            -3.6429     0.7971     1.9476 C.ar    
   5 C5            -3.8653     2.1240     2.3439 C.ar    
   6 C6            -2.7956     2.9343     2.7174 C.ar    
   7 N7            -0.2727     2.9656     2.9880 N.pl3   
   8 C8             0.6919     2.0062     2.7863 C.2     
   9 C9             0.1028     0.8597     2.3616 C.2     
  10 C10            0.8077    -0.4298     2.0281 C.3     
  11 C11            0.2879    -1.5451     2.9374 C.3     
  12 C12            1.0035    -2.8544     2.5988 C.3     
  13 C13            0.7336    -3.2200     1.1378 C.3     
  14 C14            1.2534    -2.1048     0.2285 C.3     
  15 C15            0.5378    -0.7955     0.5671 C.3     
  16 C16           -5.2391     2.6626     2.3698 C.2     
  17 O17           -5.4349     3.8126     2.7129 O.2     
  18 N18           -6.2767     1.8799     2.0132 N.am    
  19 C19           -7.6404     2.4145     2.0390 C.3     
  20 C20           -8.6074     1.3456     1.5993 C.2     
  21 C21           -7.9862     2.8616     3.4608 C.3     
  22 C22           -7.7371     3.6111     1.0904 C.3     
  23 C23           -9.1199    -0.5646     0.2840 C.ar    
  24 O24           -9.7109     1.2835     2.0987 O.2     
  25 C25          -10.4889    -0.3210     0.2283 C.ar    
  26 C26          -11.3544    -1.3260    -0.1384 C.ar    
  27 C27          -10.8556    -2.5951    -0.4563 C.ar    
  28 C28           -9.4774    -2.8354    -0.3993 C.ar    
  29 C29           -8.6195    -1.8245    -0.0310 C.ar    
  30 C30          -11.7758    -3.6717    -0.8480 C.2     
  31 C31          -12.8244    -3.4032    -1.6566 C.2     
  32 N32           -8.2460     0.4586     0.6512 N.am    
  33 C33           -0.0302     4.3359     3.4461 C.3     
  34 C34            2.1426     2.1943     2.9988 C.ar    
  35 N35            3.0107     1.4986     2.2708 N.ar    
  36 C36            4.3157     1.6392     2.4310 C.ar    
  37 C37            4.8253     2.5270     3.3750 C.ar    
  38 C38            3.9505     3.2681     4.1509 C.ar    
  39 C39            2.5881     3.1035     3.9563 C.ar    
  40 N40            5.1885     0.8922     1.6487 N.pl3   
  41 C41          -12.8432    -2.2087    -2.4201 C.2     
  42 O42          -11.8524    -1.5050    -2.4730 O.2     
  43 O43          -13.9602    -1.8524    -3.0879 O.3     
  44 H44           -2.2181    -0.7345     1.6127 H       
  45 H45           -4.4787     0.1752     1.6628 H       
  46 H46           -2.9693     3.9558     3.0221 H       
  47 H47            1.8801    -0.3075     2.1798 H       
  48 H48            0.4801    -1.2846     3.9782 H       
  49 H49           -0.7846    -1.6674     2.7856 H       
  50 H50            2.0759    -2.7320     2.7505 H       
  51 H51            0.6331    -3.6489     3.2466 H       
  52 H52            1.2434    -4.1528     0.8966 H       
  53 H53           -0.3388    -3.3424     0.9861 H       
  54 H54            2.3259    -1.9824     0.3803 H       
  55 H55            1.0612    -2.3653    -0.8123 H       
  56 H56           -0.5346    -0.9178     0.4154 H       
  57 H57            0.9081    -0.0010    -0.0807 H       
  58 H58           -6.1205     0.9625     1.7395 H       
  59 H59           -7.2867     3.6347     3.7788 H       
  60 H60           -9.0008     3.2594     3.4799 H       
  61 H61           -7.9173     2.0091     4.1365 H       
  62 H62           -7.4907     3.2926     0.0775 H       
  63 H63           -8.7517     4.0089     1.1096 H       
  64 H64           -7.0376     4.3842     1.4084 H       
  65 H65          -10.8728     0.6582     0.4737 H       
  66 H66          -12.4168    -1.1363    -0.1807 H       
  67 H67           -9.0884    -3.8129    -0.6433 H       
  68 H68           -7.5563    -2.0088     0.0129 H       
  69 H69          -11.6139    -4.6775    -0.4896 H       
  70 H70          -13.6482    -4.0986    -1.7213 H       
  71 H71           -7.3782     0.5317     0.2241 H       
  72 H72           -0.0607     4.3656     4.5353 H       
  73 H73            0.9495     4.6663     3.1009 H       
  74 H74           -0.7989     4.9952     3.0430 H       
  75 H75            5.8924     2.6361     3.5009 H       
  76 H76            4.3218     3.9628     4.8897 H       
  77 H77            1.8800     3.6670     4.5457 H       
  78 H78            4.8393     0.2719     0.9898 H       
  79 H79            6.1468     0.9910     1.7618 H       
  80 H80          -13.8772    -1.0238    -3.5794 H       
@<TRIPOS>BOND
   1    1    2 ar
   2    1    7 1
   3    1    6 ar
   4    2    3 ar
   5    2    9 1
   6    3    4 ar
   7    3   44 1
   8    4    5 ar
   9    4   45 1
  10    5    6 ar
  11    5   16 1
  12    6   46 1
  13    7    8 1
  14    7   33 1
  15    8    9 2
  16    8   34 1
  17    9   10 1
  18   10   11 1
  19   10   15 1
  20   10   47 1
  21   11   12 1
  22   11   48 1
  23   11   49 1
  24   12   13 1
  25   12   50 1
  26   12   51 1
  27   13   14 1
  28   13   52 1
  29   13   53 1
  30   14   15 1
  31   14   54 1
  32   14   55 1
  33   15   56 1
  34   15   57 1
  35   16   17 2
  36   16   18 am
  37   18   19 1
  38   18   58 1
  39   19   20 1
  40   19   21 1
  41   19   22 1
  42   20   24 2
  43   20   32 am
  44   21   59 1
  45   21   60 1
  46   21   61 1
  47   22   62 1
  48   22   63 1
  49   22   64 1
  50   23   25 ar
  51   23   29 ar
  52   23   32 1
  53   25   26 ar
  54   25   65 1
  55   26   27 ar
  56   26   66 1
  57   27   28 ar
  58   27   30 1
  59   28   29 ar
  60   28   67 1
  61   29   68 1
  62   30   31 2
  63   30   69 1
  64   31   41 1
  65   31   70 1
  66   32   71 1
  67   33   72 1
  68   33   73 1
  69   33   74 1
  70   34   35 ar
  71   34   39 ar
  72   35   36 ar
  73   36   37 ar
  74   36   40 1
  75   37   38 ar
  76   37   75 1
  77   38   39 ar
  78   38   76 1
  79   39   77 1
  80   40   78 1
  81   40   79 1
  82   41   42 2
  83   41   43 1
  84   43   80 1

#	End of record

