#	Name: ASD02030553
#	Creating user name:	WinNT
#	Creation time:	15. 06. 2019 20:15

#	Modifying user name:	WinNT
#	Modification time:	15. 06. 2019 20:15

#	Program:	/corina/corina34_cracker 3.40 0067  02.08.2006

@<TRIPOS>MOLECULE
ASD02030553
  61   65    0    0    0
SMALL
NO_CHARGES


@<TRIPOS>ATOM
   1 C1             0.1330     1.4010     0.8957 C.2     
   2 C2             0.2420     0.0957     1.2694 C.2     
   3 C3             1.4675    -0.5632     1.2061 C.2     
   4 C4             2.5869     0.0777     0.7702 C.2     
   5 C5             2.5155     1.4261     0.3753 C.2     
   6 C6             1.2671     2.0935     0.4409 C.2     
   7 C7             1.1701     3.4491     0.0489 C.2     
   8 N8             3.6153     2.0559    -0.0535 N.2     
   9 C9             3.5988     3.3246    -0.4360 C.2     
  10 C10            2.3446     4.0962    -0.4013 C.2     
  11 C11           -0.9771    -0.6437     1.7573 C.3     
  12 O12            4.6301     3.8573    -0.8204 O.2     
  13 C13           -0.1183     4.1668     0.1072 C.ar    
  14 C14           -0.9753     4.1623    -0.9968 C.ar    
  15 C15           -2.1776     4.8347    -0.9348 C.ar    
  16 C16           -2.5365     5.5129     0.2172 C.ar    
  17 C17           -1.6927     5.5222     1.3143 C.ar    
  18 C18           -0.4898     4.8494     1.2689 C.ar    
  19 C19            2.3158     5.4331    -0.8028 C.2     
  20 N20            3.3798     6.1667    -1.1325 N.pl3   
  21 N21            3.0555     7.4726    -1.4946 N.am    
  22 C22            1.6001     7.6543    -1.4021 C.3     
  23 C23            1.0729     6.2828    -0.9407 C.3     
  24 C24            1.2656     8.7205    -0.3909 C.ar    
  25 C25            0.2306     9.6038    -0.6348 C.ar    
  26 C26           -0.0768    10.5815     0.2925 C.ar    
  27 C27            0.6514    10.6761     1.4648 C.ar    
  28 C28            1.6870     9.7920     1.7084 C.ar    
  29 C29            1.9903     8.8112     0.7829 C.ar    
  30 C30            3.9376     8.4198    -1.8702 C.2     
  31 O31            3.5469     9.5293    -2.1657 O.2     
  32 C32            5.4095     8.1005    -1.9228 C.3     
  33 C33            6.1843     9.3396    -2.3756 C.3     
  34 C34            7.6562     9.0202    -2.4282 C.2     
  35 O35            8.5347     9.9636    -2.8022 O.3     
  36 O36            8.0454     7.9149    -2.1338 O.2     
  37 Br37           0.2317    12.0139     2.7336 Br      
  38 H38           -0.8233     1.9006     0.9448 H       
  39 H39            1.5309    -1.5983     1.5077 H       
  40 H40            3.5291    -0.4486     0.7279 H       
  41 H41           -1.4787    -1.1150     0.9121 H       
  42 H42           -0.6758    -1.4083     2.4734 H       
  43 H43           -1.6585     0.0572     2.2394 H       
  44 H44           -0.6964     3.6338    -1.8965 H       
  45 H45           -2.8407     4.8324    -1.7872 H       
  46 H46           -3.4794     6.0378     0.2600 H       
  47 H47           -1.9792     6.0538     2.2097 H       
  48 H48            0.1656     4.8538     2.1273 H       
  49 H49            4.2877     5.8256    -1.1214 H       
  50 H50            1.1852     7.9092    -2.3773 H       
  51 H51            0.4022     5.8588    -1.6880 H       
  52 H52            0.5656     6.3751     0.0196 H       
  53 H53           -0.3376     9.5302    -1.5503 H       
  54 H54           -0.8852    11.2718     0.1017 H       
  55 H55            2.2560     9.8656     2.6234 H       
  56 H56            2.7961     8.1183     0.9748 H       
  57 H57            5.7516     7.7997    -0.9326 H       
  58 H58            5.5798     7.2874    -2.6285 H       
  59 H59            5.8422     9.6403    -3.3658 H       
  60 H60            6.0140    10.1526    -1.6699 H       
  61 H61            9.4681     9.7117    -2.8207 H       
@<TRIPOS>BOND
   1    1    2 2
   2    1    6 1
   3    1   38 1
   4    2    3 1
   5    2   11 1
   6    3    4 2
   7    3   39 1
   8    4    5 1
   9    4   40 1
  10    5    8 2
  11    5    6 1
  12    6    7 2
  13    7   10 1
  14    7   13 1
  15    8    9 1
  16    9   10 1
  17    9   12 2
  18   10   19 2
  19   11   41 1
  20   11   42 1
  21   11   43 1
  22   13   14 ar
  23   13   18 ar
  24   14   15 ar
  25   14   44 1
  26   15   16 ar
  27   15   45 1
  28   16   17 ar
  29   16   46 1
  30   17   18 ar
  31   17   47 1
  32   18   48 1
  33   19   20 1
  34   19   23 1
  35   20   21 1
  36   20   49 1
  37   21   22 1
  38   21   30 am
  39   22   23 1
  40   22   24 1
  41   22   50 1
  42   23   51 1
  43   23   52 1
  44   24   25 ar
  45   24   29 ar
  46   25   26 ar
  47   25   53 1
  48   26   27 ar
  49   26   54 1
  50   27   28 ar
  51   27   37 1
  52   28   29 ar
  53   28   55 1
  54   29   56 1
  55   30   31 2
  56   30   32 1
  57   32   33 1
  58   32   57 1
  59   32   58 1
  60   33   34 1
  61   33   59 1
  62   33   60 1
  63   34   35 1
  64   34   36 2
  65   35   61 1

#	End of record

