#	Name: ASD05170076
#	Creating user name:	WinNT
#	Creation time:	15. 06. 2019 20:57

#	Modifying user name:	WinNT
#	Modification time:	15. 06. 2019 20:57

#	Program:	/corina/corina34_cracker 3.40 0067  02.08.2006

@<TRIPOS>MOLECULE
ASD05170076
  43   46    0    0    0
SMALL
NO_CHARGES


@<TRIPOS>ATOM
   1 C1            -0.0167     1.3796     0.0096 C.ar    
   2 C2             0.0021    -0.0041     0.0020 C.ar    
   3 C3             1.2329    -0.6499    -0.0132 C.ar    
   4 C4             2.3913     0.1046    -0.0202 C.ar    
   5 N5             2.3390     1.4234    -0.0122 N.ar    
   6 C6             1.1871     2.0723     0.0019 C.ar    
   7 O7             1.1810     3.4295     0.0087 O.3     
   8 C8             2.4513     4.0841     0.0002 C.3     
   9 C9             2.2471     5.5771     0.0096 C.2     
  10 C10            1.0126     6.2402     0.0301 C.2     
  11 N11            3.1943     6.4860     0.0058 N.2     
  12 C12            1.3244     7.5700     0.0292 C.2     
  13 C13            0.4784     8.7730     0.0498 C.2     
  14 N14            2.6989     7.6612     0.0251 N.pl3   
  15 C15            3.3736     8.9644     0.0587 C.3     
  16 C16            2.4929    10.0056    -0.6306 C.3     
  17 N17            1.1054     9.9530    -0.1757 N.am    
  18 O18           -0.7186     8.7120     0.2575 O.2     
  19 C19            3.6125     9.3788     1.5120 C.3     
  20 F20            1.2963    -1.9993    -0.0206 F       
  21 C21            0.4096    11.1487     0.0363 C.ar    
  22 C22            0.4411    11.7606     1.2820 C.ar    
  23 C23           -0.2467    12.9407     1.4884 C.ar    
  24 C24           -0.9670    13.5135     0.4562 C.ar    
  25 C25           -1.0016    12.9081    -0.7864 C.ar    
  26 C26           -0.3104    11.7297    -1.0021 C.ar    
  27 F27           -0.3392    11.1411    -2.2178 F       
  28 H28           -0.9552     1.9139     0.0170 H       
  29 H29           -0.9183    -0.5691     0.0081 H       
  30 H30            3.3507    -0.3911    -0.0320 H       
  31 H31            3.0179     3.7893     0.8834 H       
  32 H32            3.0012     3.7982    -0.8965 H       
  33 H33            0.0283     5.7960     0.0433 H       
  34 H34            4.3286     8.8934    -0.4620 H       
  35 H35            2.8935    10.9981    -0.4245 H       
  36 H36            2.5196     9.8332    -1.7065 H       
  37 H37            4.2375     8.6336     2.0042 H       
  38 H38            4.1135    10.3465     1.5362 H       
  39 H39            2.6567     9.4513     2.0309 H       
  40 H40            1.0026    11.3142     2.0894 H       
  41 H41           -0.2221    13.4166     2.4576 H       
  42 H42           -1.5041    14.4358     0.6212 H       
  43 H43           -1.5651    13.3580    -1.5904 H       
@<TRIPOS>BOND
   1    1    2 ar
   2    1    6 ar
   3    1   28 1
   4    2    3 ar
   5    2   29 1
   6    3    4 ar
   7    3   20 1
   8    4    5 ar
   9    4   30 1
  10    5    6 ar
  11    6    7 1
  12    7    8 1
  13    8    9 1
  14    8   31 1
  15    8   32 1
  16    9   11 2
  17    9   10 1
  18   10   12 2
  19   10   33 1
  20   11   14 1
  21   12   14 1
  22   12   13 1
  23   13   17 am
  24   13   18 2
  25   14   15 1
  26   15   16 1
  27   15   19 1
  28   15   34 1
  29   16   17 1
  30   16   35 1
  31   16   36 1
  32   17   21 1
  33   19   37 1
  34   19   38 1
  35   19   39 1
  36   21   22 ar
  37   21   26 ar
  38   22   23 ar
  39   22   40 1
  40   23   24 ar
  41   23   41 1
  42   24   25 ar
  43   24   42 1
  44   25   26 ar
  45   25   43 1
  46   26   27 1

#	End of record

