#	Name: ASD04910019
#	Creating user name:	WinNT
#	Creation time:	15. 06. 2019 20:55

#	Modifying user name:	WinNT
#	Modification time:	15. 06. 2019 20:55

#	Program:	/corina/corina34_cracker 3.40 0067  02.08.2006

@<TRIPOS>MOLECULE
ASD04910019
  61   63    0    0    0
SMALL
NO_CHARGES


@<TRIPOS>ATOM
   1 C1             4.1453    -4.7527     9.1997 C.2     
   2 C2             3.6621    -5.4725     7.9669 C.3     
   3 C3             4.4615    -4.9966     6.7523 C.3     
   4 O4             5.0375    -3.9423     9.1154 O.2     
   5 O5             3.5807    -5.0080    10.3904 O.3     
   6 C6             4.5549    -5.4359     4.3574 C.2     
   7 C7             4.0817    -6.1409     3.1500 C.ar    
   8 C8             4.6642    -5.8724     1.9086 C.ar    
   9 C9             4.2199    -6.5321     0.7845 C.ar    
  10 C10            3.1930    -7.4637     0.8835 C.ar    
  11 C11            2.6107    -7.7332     2.1165 C.ar    
  12 C12            3.0539    -7.0826     3.2463 C.ar    
  13 O13            5.4527    -4.6204     4.2726 O.2     
  14 N14            3.9918    -5.6962     5.5539 N.am    
  15 O15            2.7576    -8.1114    -0.2266 O.3     
  16 C16            1.6214    -8.9649    -0.0761 C.3     
  17 C17            0.9091    -9.1081    -1.4225 C.3     
  18 C18            0.4016    -7.7388    -1.8792 C.3     
  19 C19           -0.1839    -7.8558    -3.2879 C.3     
  20 C20            2.0719   -10.3217     0.4007 C.ar    
  21 C21            1.2780   -11.0459     1.2709 C.ar    
  22 C22            1.6883   -12.2897     1.7096 C.ar    
  23 C23            2.8987   -12.8127     1.2756 C.ar    
  24 C24            3.6934   -12.0835     0.4016 C.ar    
  25 C25            3.2756   -10.8423    -0.0374 C.ar    
  26 C26            2.6481   -14.8958     2.5696 C.2     
  27 N27            3.3541   -15.9796     2.7439 N.2     
  28 C28            4.4830   -15.8950     2.0245 C.2     
  29 C29            4.4816   -14.7143     1.3771 C.2     
  30 N30            3.3182   -14.0751     1.7196 N.pl3   
  31 C31            5.5661   -16.9405     1.9536 C.3     
  32 F32            5.1661   -18.0755     2.6670 F       
  33 F33            5.7939   -17.2860     0.6172 F       
  34 F34            6.7437   -16.4306     2.5106 F       
  35 C35           -0.6813    -7.2490    -0.9158 C.3     
  36 H36            3.8007    -6.5460     8.0952 H       
  37 H37            2.6046    -5.2585     7.8124 H       
  38 H38            4.3230    -3.9231     6.6240 H       
  39 H39            5.5191    -5.2105     6.9068 H       
  40 H40            3.9243    -4.5217    11.1524 H       
  41 H41            5.4616    -5.1482     1.8307 H       
  42 H42            4.6696    -6.3252    -0.1753 H       
  43 H43            1.8128    -8.4575     2.1893 H       
  44 H44            2.6042    -7.2961     4.2048 H       
  45 H45            3.2756    -6.3468     5.6216 H       
  46 H46            0.9363    -8.5325     0.6532 H       
  47 H47            1.6059    -9.5025    -2.1621 H       
  48 H48            0.0663    -9.7912    -1.3169 H       
  49 H49            1.2288    -7.0290    -1.8873 H       
  50 H50           -1.0111    -8.5656    -3.2797 H       
  51 H51           -0.5454    -6.8803    -3.6132 H       
  52 H52            0.5876    -8.2047    -3.9742 H       
  53 H53            0.3364   -10.6385     1.6082 H       
  54 H54            1.0682   -12.8546     2.3898 H       
  55 H55            4.6358   -12.4878     0.0626 H       
  56 H56            3.8917   -10.2762    -0.7203 H       
  57 H57            1.6895   -14.6883     3.0218 H       
  58 H58            5.2496   -14.3424     0.7151 H       
  59 H59           -0.2412    -7.0708     0.0654 H       
  60 H60           -1.1122    -6.3221    -1.2944 H       
  61 H61           -1.4620    -8.0050    -0.8320 H       
@<TRIPOS>BOND
   1    1    2 1
   2    1    4 2
   3    1    5 1
   4    2    3 1
   5    2   36 1
   6    2   37 1
   7    3   14 1
   8    3   38 1
   9    3   39 1
  10    5   40 1
  11    6    7 1
  12    6   13 2
  13    6   14 am
  14    7    8 ar
  15    7   12 ar
  16    8    9 ar
  17    8   41 1
  18    9   10 ar
  19    9   42 1
  20   10   11 ar
  21   10   15 1
  22   11   12 ar
  23   11   43 1
  24   12   44 1
  25   14   45 1
  26   15   16 1
  27   16   17 1
  28   16   20 1
  29   16   46 1
  30   17   18 1
  31   17   47 1
  32   17   48 1
  33   18   19 1
  34   18   35 1
  35   18   49 1
  36   19   50 1
  37   19   51 1
  38   19   52 1
  39   20   21 ar
  40   20   25 ar
  41   21   22 ar
  42   21   53 1
  43   22   23 ar
  44   22   54 1
  45   23   24 ar
  46   23   30 1
  47   24   25 ar
  48   24   55 1
  49   25   56 1
  50   26   27 2
  51   26   30 1
  52   26   57 1
  53   27   28 1
  54   28   29 2
  55   28   31 1
  56   29   30 1
  57   29   58 1
  58   31   32 1
  59   31   33 1
  60   31   34 1
  61   35   59 1
  62   35   60 1
  63   35   61 1

#	End of record

