#	Name: ASD01920003
#	Creating user name:	WinNT
#	Creation time:	15. 06. 2019 20:11

#	Modifying user name:	WinNT
#	Modification time:	15. 06. 2019 20:11

#	Program:	/corina/corina34_cracker 3.40 0067  02.08.2006

@<TRIPOS>MOLECULE
ASD01920003
  55   57    0    0    0
SMALL
NO_CHARGES


@<TRIPOS>ATOM
   1 C1             0.5441     0.3179    -0.6484 C.ar    
   2 C2             0.4266    -1.0651    -0.8126 C.ar    
   3 C3            -0.8117    -1.6627    -0.7394 C.ar    
   4 C4            -1.9449    -0.8919    -0.5028 C.ar    
   5 C5            -1.8321     0.4846    -0.3394 C.ar    
   6 C6            -0.5963     1.0885    -0.4050 C.ar    
   7 C7             1.8691     0.9619    -0.7256 C.2     
   8 O8             1.9804     2.2953    -0.5670 O.3     
   9 O9             2.8600     0.2899    -0.9321 O.2     
  10 C10            3.3149     2.8605    -0.6555 C.3     
  11 N11           -3.2003    -1.5020    -0.4297 N.pl3   
  12 C12           -3.5799    -2.3945     0.5347 C.2     
  13 C13           -4.8457    -2.7800     0.3043 C.2     
  14 C14           -5.2844    -2.0662    -0.9030 C.2     
  15 C15           -4.2109    -1.2900    -1.2962 C.2     
  16 C16           -2.7157    -2.8696     1.6742 C.3     
  17 C17           -4.1736    -0.3723    -2.4909 C.3     
  18 C18           -6.5935    -2.1551    -1.5534 C.2     
  19 C19           -7.6592    -3.0544    -0.9820 C.3     
  20 O20           -6.8200    -1.5047    -2.5525 O.2     
  21 S21           -9.1539    -2.9459    -2.0042 S.3     
  22 C22          -10.2681    -4.0451    -1.1950 C.ar    
  23 C23          -11.5494    -4.2315    -1.6992 C.ar    
  24 C24           -9.8639    -4.7301    -0.0556 C.ar    
  25 C25          -10.7372    -5.5911     0.5780 C.ar    
  26 C26          -12.0194    -5.7731     0.0767 C.ar    
  27 C27          -12.4220    -5.0927    -1.0649 C.ar    
  28 N28          -12.9054    -6.6480     0.7199 N.am    
  29 C29          -12.8896    -6.7559     2.0632 C.2     
  30 C30          -13.9108    -7.6160     2.7621 C.3     
  31 O31          -12.0535    -6.1607     2.7097 O.2     
  32 H32            1.3061    -1.6643    -0.9970 H       
  33 H33           -0.9033    -2.7313    -0.8662 H       
  34 H34           -2.7143     1.0801    -0.1562 H       
  35 H35           -0.5094     2.1575    -0.2776 H       
  36 H36            3.9479     2.4202     0.1149 H       
  37 H37            3.7359     2.6463    -1.6378 H       
  38 H38            3.2629     3.9395    -0.5100 H       
  39 H39           -5.4262    -3.4772     0.8902 H       
  40 H40           -2.8493    -2.2095     2.5312 H       
  41 H41           -3.0026    -3.8846     1.9491 H       
  42 H42           -1.6701    -2.8583     1.3664 H       
  43 H43           -4.5102     0.6216    -2.1962 H       
  44 H44           -3.1539    -0.3125    -2.8715 H       
  45 H45           -4.8296    -0.7622    -3.2692 H       
  46 H46           -7.2996    -4.0833    -0.9722 H       
  47 H47           -7.8916    -2.7410     0.0358 H       
  48 H48          -11.8626    -3.7024    -2.5871 H       
  49 H49           -8.8665    -4.5891     0.3339 H       
  50 H50          -10.4231    -6.1235     1.4636 H       
  51 H51          -13.4193    -5.2346    -1.4545 H       
  52 H52          -13.5299    -7.1760     0.1982 H       
  53 H53          -14.5729    -8.0671     2.0230 H       
  54 H54          -13.4026    -8.4013     3.3218 H       
  55 H55          -14.4956    -7.0019     3.4470 H       
@<TRIPOS>BOND
   1    1    2 ar
   2    1    7 1
   3    1    6 ar
   4    2    3 ar
   5    2   32 1
   6    3    4 ar
   7    3   33 1
   8    4    5 ar
   9    4   11 1
  10    5    6 ar
  11    5   34 1
  12    6   35 1
  13    7    8 1
  14    7    9 2
  15    8   10 1
  16   10   36 1
  17   10   37 1
  18   10   38 1
  19   11   12 1
  20   11   15 1
  21   12   13 2
  22   12   16 1
  23   13   14 1
  24   13   39 1
  25   14   15 2
  26   14   18 1
  27   15   17 1
  28   16   40 1
  29   16   41 1
  30   16   42 1
  31   17   43 1
  32   17   44 1
  33   17   45 1
  34   18   19 1
  35   18   20 2
  36   19   21 1
  37   19   46 1
  38   19   47 1
  39   21   22 1
  40   22   23 ar
  41   22   24 ar
  42   23   27 ar
  43   23   48 1
  44   24   25 ar
  45   24   49 1
  46   25   26 ar
  47   25   50 1
  48   26   27 ar
  49   26   28 1
  50   27   51 1
  51   28   29 am
  52   28   52 1
  53   29   30 1
  54   29   31 2
  55   30   53 1
  56   30   54 1
  57   30   55 1

#	End of record

