#	Name: ASD01910275
#	Creating user name:	WinNT
#	Creation time:	15. 06. 2019 19:55

#	Modifying user name:	WinNT
#	Modification time:	15. 06. 2019 19:55

#	Program:	/corina/corina34_cracker 3.40 0067  02.08.2006

@<TRIPOS>MOLECULE
ASD01910275
  54   57    0    0    0
SMALL
NO_CHARGES


@<TRIPOS>ATOM
   1 C1             0.6363     1.6202    -0.3701 C.3     
   2 C2             0.9913     0.1969    -0.7156 C.2     
   3 O3             2.1503    -0.1130    -0.8930 O.2     
   4 N4             0.0207    -0.7315    -0.8273 N.am    
   5 C5             0.3412    -2.1028    -1.2461 C.3     
   6 C6            -0.2206    -3.0794    -0.2081 C.3     
   7 C7            -1.7158    -2.8130    -0.0198 C.3     
   8 C8            -1.9205    -1.3874     0.4979 C.3     
   9 C9            -1.3771    -0.3931    -0.5267 C.3     
  10 N10           -0.1603    -6.1881    -1.9027 N.2     
  11 C11            0.5717    -6.5221    -0.8716 C.2     
  12 N12            0.6681    -5.4299    -0.0801 N.2     
  13 C13           -0.0181    -4.4939    -0.6870 C.2     
  14 O14           -0.5055    -5.0291    -1.8107 O.3     
  15 C15            1.1822    -7.8505    -0.6180 C.ar    
  16 C16            0.9973    -8.8897    -1.5279 C.ar    
  17 C17            1.5666   -10.1232    -1.2881 C.ar    
  18 C18            2.3209   -10.3299    -0.1443 C.ar    
  19 C19            2.5072    -9.2993     0.7631 C.ar    
  20 C20            1.9467    -8.0609     0.5280 C.ar    
  21 F21            2.8759   -11.5396     0.0872 F       
  22 C22            1.8516     2.3124     0.2512 C.3     
  23 C23            1.4770     3.7480     0.6327 C.3     
  24 N24            0.9368     4.4267    -0.5531 N.am    
  25 C25           -0.1755     3.8001    -1.2804 C.3     
  26 C26            0.2176     2.3640    -1.6404 C.3     
  27 C27            1.4515     5.6020    -0.9657 C.2     
  28 C28            2.5076     6.2928    -0.1419 C.3     
  29 O29            1.0648     6.1038    -1.9999 O.2     
  30 H30           -0.1885     1.6261     0.3424 H       
  31 H31           -0.1100    -2.3030    -2.2179 H       
  32 H32            1.4228    -2.2215    -1.3117 H       
  33 H33            0.2964    -2.9387     0.7411 H       
  34 H34           -2.2286    -2.9298    -0.9745 H       
  35 H35           -2.1233    -3.5228     0.7002 H       
  36 H36           -2.9839    -1.2062     0.6540 H       
  37 H37           -1.3874    -1.2626     1.4404 H       
  38 H38           -1.4305     0.6167    -0.1199 H       
  39 H39           -1.9666    -0.4524    -1.4416 H       
  40 H40            0.4090    -8.7297    -2.4193 H       
  41 H41            1.4239   -10.9291    -1.9928 H       
  42 H42            3.0956    -9.4647     1.6536 H       
  43 H43            2.0924    -7.2582     1.2358 H       
  44 H44            2.1636     1.7686     1.1429 H       
  45 H45            2.6689     2.3290    -0.4699 H       
  46 H46            0.7231     3.7320     1.4197 H       
  47 H47            2.3636     4.2759     0.9837 H       
  48 H48           -1.0642     3.7884    -0.6493 H       
  49 H49           -0.3792     4.3626    -2.1916 H       
  50 H50            1.0503     2.3801    -2.3437 H       
  51 H51           -0.6334     1.8569    -2.0951 H       
  52 H52            2.7112     5.7059     0.7538 H       
  53 H53            3.4211     6.3887    -0.7288 H       
  54 H54            2.1544     7.2832     0.1451 H       
@<TRIPOS>BOND
   1    1    2 1
   2    1   22 1
   3    1   26 1
   4    1   30 1
   5    2    3 2
   6    2    4 am
   7    4    5 1
   8    4    9 1
   9    5    6 1
  10    5   31 1
  11    5   32 1
  12    6    7 1
  13    6   13 1
  14    6   33 1
  15    7    8 1
  16    7   34 1
  17    7   35 1
  18    8    9 1
  19    8   36 1
  20    8   37 1
  21    9   38 1
  22    9   39 1
  23   10   11 2
  24   10   14 1
  25   11   12 1
  26   11   15 1
  27   12   13 2
  28   13   14 1
  29   15   16 ar
  30   15   20 ar
  31   16   17 ar
  32   16   40 1
  33   17   18 ar
  34   17   41 1
  35   18   19 ar
  36   18   21 1
  37   19   20 ar
  38   19   42 1
  39   20   43 1
  40   22   23 1
  41   22   44 1
  42   22   45 1
  43   23   24 1
  44   23   46 1
  45   23   47 1
  46   24   25 1
  47   24   27 am
  48   25   26 1
  49   25   48 1
  50   25   49 1
  51   26   50 1
  52   26   51 1
  53   27   28 1
  54   27   29 2
  55   28   52 1
  56   28   53 1
  57   28   54 1

#	End of record

