#	Name: ASD05720276
#	Creating user name:	WinNT
#	Creation time:	15. 06. 2019 21:02

#	Modifying user name:	WinNT
#	Modification time:	15. 06. 2019 21:02

#	Program:	/corina/corina34_cracker 3.40 0067  02.08.2006

@<TRIPOS>MOLECULE
ASD05720276
  66   70    0    0    0
SMALL
NO_CHARGES


@<TRIPOS>ATOM
   1 C1             0.5119     1.0237     1.1164 C.2     
   2 N2             0.4122    -0.2391     0.6808 N.am    
   3 C3             1.6580    -0.6134    -0.0049 C.3     
   4 C4             2.5297     0.6535     0.0955 C.3     
   5 N5             1.6824     1.6071     0.8270 N.am    
   6 O6            -0.3811     1.5906     1.7157 O.2     
   7 C7             2.0587     2.9775     1.1828 C.3     
   8 N8             1.8402     2.3729     3.5569 N.3     
   9 C9             2.7352     2.9807     2.5551 C.3     
  10 C10            3.0051     4.4323     3.0040 C.3     
  11 C11            2.7087     4.3882     4.5262 C.3     
  12 C12            1.5280     3.3872     4.5862 C.3     
  13 C13            1.3817    -0.9606    -1.4691 C.3     
  14 C14            0.5224    -2.2245    -1.5401 C.3     
  15 C15            0.6397     0.1988    -2.1369 C.3     
  16 C16           -1.6778    -3.1433     0.6617 C.2     
  17 N17           -0.6243    -2.3357     0.5053 N.2     
  18 C18           -0.6921    -1.0636     0.8499 C.2     
  19 C19           -1.8851    -0.5415     1.3900 C.2     
  20 C20           -2.9530    -1.3558     1.5497 C.2     
  21 N21           -2.8523    -2.6692     1.1834 N.pl3   
  22 N22           -3.7636    -3.7303     1.2267 N.2     
  23 C23           -3.1914    -4.8116     0.7573 C.2     
  24 C24           -1.8788    -4.5014     0.3811 C.2     
  25 C25           -0.8882    -5.4341    -0.2016 C.ar    
  26 C26           -0.6489    -6.6680     0.4062 C.ar    
  27 C27            0.2725    -7.5353    -0.1368 C.ar    
  28 C28            0.9670    -7.1812    -1.2934 C.ar    
  29 C29            0.7285    -5.9487    -1.9011 C.ar    
  30 C30           -0.1968    -5.0827    -1.3625 C.ar    
  31 N31            3.4781    -9.0331    -3.1490 N.pl3   
  32 N32            2.6749    -7.8969    -2.9593 N.2     
  33 C33            1.9599    -8.1156    -1.8770 C.2     
  34 N34            2.2776    -9.3227    -1.3893 N.2     
  35 C35            3.1866    -9.8797    -2.1451 C.2     
  36 H36            2.1383    -1.4495     0.5036 H       
  37 H37            3.4427     0.4464     0.6537 H       
  38 H38            2.7656     1.0352    -0.8979 H       
  39 H39            2.7493     3.3700     0.4364 H       
  40 H40            1.1662     3.6023     1.2162 H       
  41 H41            0.9975     2.0247     3.1250 H       
  42 H42            3.6725     2.4261     2.5102 H       
  43 H43            4.0444     4.7052     2.8215 H       
  44 H44            2.3298     5.1235     2.4997 H       
  45 H45            3.5684     4.0117     5.0806 H       
  46 H46            2.4080     5.3692     4.8940 H       
  47 H47            0.5908     3.8912     4.3503 H       
  48 H48            1.4731     2.9238     5.5713 H       
  49 H49            2.3257    -1.1336    -1.9859 H       
  50 H50            0.5093    -2.5979    -2.5641 H       
  51 H51            0.9403    -2.9855    -0.8812 H       
  52 H52           -0.4947    -1.9904    -1.2258 H       
  53 H53            1.2519     1.0992    -2.0863 H       
  54 H54            0.4428    -0.0485    -3.1801 H       
  55 H55           -0.3043     0.3718    -1.6201 H       
  56 H56           -1.9455     0.4988     1.6739 H       
  57 H57           -3.8748    -0.9730     1.9622 H       
  58 H58           -3.6570    -5.7823     0.6714 H       
  59 H59           -1.1861    -6.9420     1.3021 H       
  60 H60            0.4577    -8.4899     0.3333 H       
  61 H61            1.2666    -5.6751    -2.7966 H       
  62 H62           -0.3844    -4.1301    -1.8354 H       
  63 H63            4.1151    -9.1803    -3.8656 H       
  64 H64            3.6281   -10.8531    -1.9903 H       
  65 Cl65           9.1151    10.3692    10.5713 Cl      
  66 H66            9.1151    11.7392    10.5713 H       
@<TRIPOS>BOND
   1    1    2 am
   2    1    5 am
   3    1    6 2
   4    2    3 1
   5    2   18 1
   6    3    4 1
   7    3   13 1
   8    3   36 1
   9    4    5 1
  10    4   37 1
  11    4   38 1
  12    5    7 1
  13    7    9 1
  14    7   39 1
  15    7   40 1
  16    8    9 1
  17    8   12 1
  18    8   41 1
  19    9   10 1
  20    9   42 1
  21   10   11 1
  22   10   43 1
  23   10   44 1
  24   11   12 1
  25   11   45 1
  26   11   46 1
  27   12   47 1
  28   12   48 1
  29   13   14 1
  30   13   15 1
  31   13   49 1
  32   14   50 1
  33   14   51 1
  34   14   52 1
  35   15   53 1
  36   15   54 1
  37   15   55 1
  38   16   17 1
  39   16   21 1
  40   16   24 2
  41   17   18 2
  42   18   19 1
  43   19   20 2
  44   19   56 1
  45   20   21 1
  46   20   57 1
  47   21   22 1
  48   22   23 2
  49   23   24 1
  50   23   58 1
  51   24   25 1
  52   25   26 ar
  53   25   30 ar
  54   26   27 ar
  55   26   59 1
  56   27   28 ar
  57   27   60 1
  58   28   29 ar
  59   28   33 1
  60   29   30 ar
  61   29   61 1
  62   30   62 1
  63   31   32 1
  64   31   35 1
  65   31   63 1
  66   32   33 2
  67   33   34 1
  68   34   35 2
  69   35   64 1
  70   65   66 1

#	End of record

