#	Name: ASD07930620
#	Creating user name:	WinNT
#	Creation time:	15. 06. 2019 21:12

#	Modifying user name:	WinNT
#	Modification time:	15. 06. 2019 21:12

#	Program:	/corina/corina34_cracker 3.40 0067  02.08.2006

@<TRIPOS>MOLECULE
ASD07930620
  46   48    0    0    0
SMALL
NO_CHARGES


@<TRIPOS>ATOM
   1 C1             1.3693     0.7526    -1.5474 C.3     
   2 N2             2.3133    -2.0772    -1.4376 N.2     
   3 N3             0.0354    -2.5823    -1.3054 N.pl3   
   4 C4            -0.8997    -2.7429    -0.1870 C.3     
   5 C5            -1.5453    -1.3872     0.1314 C.3     
   6 S6            -0.2180    -0.1886     0.4722 S.o2    
   7 N7             0.8027    -0.3916    -0.8291 N.am    
   8 C8             1.0893    -1.6980    -1.1990 C.2     
   9 C9            -0.1435    -3.2501     1.0425 C.3     
  10 C10           -1.9705    -3.7338    -0.5646 C.ar    
  11 C11           -1.6886    -4.7477    -1.4613 C.ar    
  12 C12           -2.6781    -5.6615    -1.8087 C.ar    
  13 C13           -3.9456    -5.5527    -1.2539 C.ar    
  14 C14           -4.2222    -4.5376    -0.3582 C.ar    
  15 C15           -3.2350    -3.6320    -0.0088 C.ar    
  16 O16           -0.6969     1.1434     0.3465 O.2     
  17 O17            0.5509    -0.5937     1.5964 O.2     
  18 N18           -2.3960    -6.6893    -2.7170 N.am    
  19 C19           -3.3926    -7.2518    -3.4290 C.2     
  20 O20           -4.5195    -6.8025    -3.3567 O.2     
  21 C21           -3.1143    -8.4178    -4.2997 C.ar    
  22 N22           -1.8800    -8.9016    -4.3721 N.ar    
  23 F23           -3.5086    -2.6409     0.8677 F       
  24 C24           -1.5841    -9.9332    -5.1297 C.ar    
  25 C25           -3.8847   -10.0844    -5.8385 C.ar    
  26 C26           -4.1529    -8.9960    -5.0278 C.ar    
  27 C27           -2.5708   -10.5640    -5.8944 C.ar    
  28 C28           -2.2426   -11.6882    -6.7185 C.1     
  29 F29           -0.4538    -4.8504    -1.9998 F       
  30 N30           -1.9823   -12.5800    -7.3722 N.1     
  31 H31            2.3182     1.0344    -1.0911 H       
  32 H32            1.5339     0.4815    -2.5903 H       
  33 H33            0.6773     1.5931    -1.4954 H       
  34 H34            3.0421    -1.4421    -1.3577 H       
  35 H35           -0.0844    -3.0999    -2.1170 H       
  36 H36           -2.1338    -1.0509    -0.7221 H       
  37 H37           -2.1878    -1.4827     1.0068 H       
  38 H38            0.6912    -2.5826     1.2566 H       
  39 H39           -0.8174    -3.2752     1.8988 H       
  40 H40            0.2346    -4.2537     0.8481 H       
  41 H41           -4.7154    -6.2608    -1.5225 H       
  42 H42           -5.2088    -4.4529     0.0731 H       
  43 H43           -1.4834    -6.9964    -2.8337 H       
  44 H44           -0.5681   -10.2979    -5.1627 H       
  45 H45           -4.6697   -10.5527    -6.4137 H       
  46 H46           -5.1551    -8.5992    -4.9595 H       
@<TRIPOS>BOND
   1    1    7 1
   2    1   31 1
   3    1   32 1
   4    1   33 1
   5    2    8 2
   6    2   34 1
   7    3    4 1
   8    3    8 1
   9    3   35 1
  10    4    5 1
  11    4    9 1
  12    4   10 1
  13    5    6 1
  14    5   36 1
  15    5   37 1
  16    6    7 am
  17    6   16 2
  18    6   17 2
  19    7    8 1
  20    9   38 1
  21    9   39 1
  22    9   40 1
  23   10   11 ar
  24   10   15 ar
  25   11   12 ar
  26   11   29 1
  27   12   13 ar
  28   12   18 1
  29   13   14 ar
  30   13   41 1
  31   14   15 ar
  32   14   42 1
  33   15   23 1
  34   18   19 am
  35   18   43 1
  36   19   20 2
  37   19   21 1
  38   21   22 ar
  39   21   26 ar
  40   22   24 ar
  41   24   27 ar
  42   24   44 1
  43   25   26 ar
  44   25   27 ar
  45   25   45 1
  46   26   46 1
  47   27   28 1
  48   28   30 3

#	End of record

