#	Name: ASD01885881
#	Creating user name:	WinNT
#	Creation time:	15. 06. 2019 19:50

#	Modifying user name:	WinNT
#	Modification time:	15. 06. 2019 19:50

#	Program:	/corina/corina34_cracker 3.40 0067  02.08.2006

@<TRIPOS>MOLECULE
ASD01885881
  52   55    0    0    0
SMALL
NO_CHARGES


@<TRIPOS>ATOM
   1 C1            -0.0170     1.4059     0.0098 C.ar    
   2 C2             1.2137     2.1096     0.0018 C.ar    
   3 C3             1.1962     3.5275     0.0097 C.ar    
   4 C4            -0.0384     4.1620     0.0249 C.ar    
   5 C5            -1.2080     3.3939     0.0319 C.ar    
   6 N6            -1.1702     2.0746     0.0299 N.ar    
   7 C7             0.0021    -0.0041     0.0020 C.ar    
   8 C8             1.1952    -0.6629    -0.0130 C.ar    
   9 C9             2.4002     0.0349    -0.0208 C.ar    
  10 C10            2.4197     1.3978    -0.0132 C.ar    
  11 C11            1.2104    -2.1698    -0.0207 C.3     
  12 C12            2.4554     4.3069     0.0024 C.2     
  13 N13            0.9616    -2.6551    -1.3847 N.3     
  14 C14           -2.5225     4.0793     0.0486 C.2     
  15 N15           -3.6596     3.3558     0.0556 N.am    
  16 O16           -2.5747     5.2932     0.0561 O.2     
  17 C17            3.5574     4.1194     0.8620 C.2     
  18 N18            4.4714     4.9972     0.5460 N.2     
  19 N19            3.9959     5.7736    -0.5175 N.pl3   
  20 C20            2.7645     5.3359    -0.8427 C.2     
  21 C21            4.7165     6.8704    -1.1686 C.3     
  22 F22           -1.1567    -0.6986     0.0098 F       
  23 C23            1.2018    -4.1005    -1.4811 C.3     
  24 C24            0.7947    -4.5951    -2.8710 C.3     
  25 C25            1.6112    -3.8513    -3.9314 C.3     
  26 C26            1.3808    -2.3453    -3.7782 C.3     
  27 C27            1.7709    -1.9160    -2.3620 C.3     
  28 C28            1.0657    -6.0971    -2.9783 C.3     
  29 F29            0.3228    -6.7756    -2.0062 F       
  30 F30            0.6933    -6.5485    -4.2491 F       
  31 F31            2.4286    -6.3406    -2.7778 F       
  32 H32           -0.0957     5.2404     0.0317 H       
  33 H33            3.3319    -0.5112    -0.0323 H       
  34 H34            3.3614     1.9266    -0.0194 H       
  35 H35            2.1831    -2.5251     0.3195 H       
  36 H36            0.4334    -2.5445     0.6456 H       
  37 H37           -3.6179     2.3867     0.0496 H       
  38 H38           -4.5197     3.8042     0.0665 H       
  39 H39            3.6325     3.3793     1.6449 H       
  40 H40            2.1327     5.7311    -1.6244 H       
  41 H41            5.3035     6.4773    -1.9987 H       
  42 H42            4.0016     7.6027    -1.5439 H       
  43 H43            5.3806     7.3474    -0.4478 H       
  44 H44            2.2602    -4.3044    -1.3186 H       
  45 H45            0.6121    -4.6180    -0.7244 H       
  46 H46           -0.2667    -4.4040    -3.0288 H       
  47 H47            2.6700    -4.0732    -3.7978 H       
  48 H48            1.2940    -4.1691    -4.9246 H       
  49 H49            1.9925    -1.8080    -4.5029 H       
  50 H50            0.3286    -2.1188    -3.9503 H       
  51 H51            1.5945    -0.8467    -2.2452 H       
  52 H52            2.8266    -2.1301    -2.1954 H       
@<TRIPOS>BOND
   1    1    7 ar
   2    1    2 ar
   3    1    6 ar
   4    2    3 ar
   5    2   10 ar
   6    3    4 ar
   7    3   12 1
   8    4    5 ar
   9    4   32 1
  10    5    6 ar
  11    5   14 1
  12    7    8 ar
  13    7   22 1
  14    8   11 1
  15    8    9 ar
  16    9   10 ar
  17    9   33 1
  18   10   34 1
  19   11   13 1
  20   11   35 1
  21   11   36 1
  22   12   17 1
  23   12   20 2
  24   13   23 1
  25   13   27 1
  26   14   15 am
  27   14   16 2
  28   15   37 1
  29   15   38 1
  30   17   18 2
  31   17   39 1
  32   18   19 1
  33   19   20 1
  34   19   21 1
  35   20   40 1
  36   21   41 1
  37   21   42 1
  38   21   43 1
  39   23   24 1
  40   23   44 1
  41   23   45 1
  42   24   25 1
  43   24   28 1
  44   24   46 1
  45   25   26 1
  46   25   47 1
  47   25   48 1
  48   26   27 1
  49   26   49 1
  50   26   50 1
  51   27   51 1
  52   27   52 1
  53   28   29 1
  54   28   30 1
  55   28   31 1

#	End of record

