#	Name: ASD03240839
#	Creating user name:	WinNT
#	Creation time:	15. 06. 2019 20:35

#	Modifying user name:	WinNT
#	Modification time:	15. 06. 2019 20:35

#	Program:	/corina/corina34_cracker 3.40 0067  02.08.2006

@<TRIPOS>MOLECULE
ASD03240839
  57   62    0    0    0
SMALL
NO_CHARGES


@<TRIPOS>ATOM
   1 C1            -0.0188     1.5336     0.0105 C.3     
   2 C2             0.0021    -0.0041     0.0020 C.3     
   3 C3             1.3815     0.0967    -0.6702 C.3     
   4 C4             1.5179     1.4762    -0.0045 C.3     
   5 O5            -0.5818     2.1049    -1.1721 O.3     
   6 C6             2.3746    -0.9181    -0.1653 C.ar    
   7 C7             3.3685    -1.3888    -1.0030 C.ar    
   8 C8             4.2794    -2.3196    -0.5398 C.ar    
   9 C9             4.1969    -2.7795     0.7612 C.ar    
  10 C10            3.2036    -2.3082     1.5991 C.ar    
  11 C11            2.2953    -1.3741     1.1373 C.ar    
  12 N12            3.0544    -4.9665     4.0068 N.pl3   
  13 C13            2.7814    -4.6129     5.3051 C.2     
  14 N14            3.5742    -3.7610     5.9726 N.2     
  15 C15            4.6351    -3.2239     5.4120 C.2     
  16 C16            4.9553    -3.5408     4.0821 C.2     
  17 C17            6.1270    -2.9653     3.4048 C.2     
  18 C18            6.2528    -3.0968     2.0729 C.2     
  19 C19            5.1894    -3.7951     1.2658 C.3     
  20 N20            4.4943    -4.7829     2.0997 N.pl3   
  21 C21            4.1483    -4.4412     3.3858 C.2     
  22 C22            1.6247    -5.2891     5.6696 C.2     
  23 C23            1.2164    -6.0451     4.5794 C.2     
  24 N24            2.0574    -5.8552     3.5895 N.2     
  25 C25            8.3517    -3.3311     0.7713 C.2     
  26 C26            7.4433    -2.5516     1.3949 C.2     
  27 C27            7.7259    -1.1851     1.3431 C.2     
  28 C28            8.8402    -0.8679     0.6906 C.2     
  29 S29            9.6193    -2.3232     0.0862 S.3     
  30 C30            0.0019    -6.9363     4.5376 C.3     
  31 C31           -0.5973     2.1316     1.2944 C.3     
  32 N32            1.3186     0.1546    -2.1367 N.3     
  33 H33            0.0329    -0.4458     0.9980 H       
  34 H34           -0.7629    -0.4476    -0.6353 H       
  35 H35            1.9766     2.2276    -0.6471 H       
  36 H36            1.9632     1.4391     0.9897 H       
  37 H37           -0.5977     3.0718    -1.1727 H       
  38 H38            3.4330    -1.0294    -2.0194 H       
  39 H39            5.0554    -2.6878    -1.1945 H       
  40 H40            3.1389    -2.6678     2.6155 H       
  41 H41            1.5215    -1.0031     1.7931 H       
  42 H42            5.2575    -2.5415     5.9718 H       
  43 H43            6.8807    -2.4407     3.9733 H       
  44 H44            5.6521    -4.3008     0.4183 H       
  45 H45            4.2829    -5.6624     1.7494 H       
  46 H46            1.1314    -5.2363     6.6289 H       
  47 H47            8.3090    -4.4083     0.7070 H       
  48 H48            7.0877    -0.4422     1.7981 H       
  49 H49            9.2122     0.1366     0.5526 H       
  50 H50           -0.8583    -6.3623     4.1930 H       
  51 H51            0.1831    -7.7655     3.8537 H       
  52 H52           -0.1975    -7.3257     5.5360 H       
  53 H53            0.0010     1.8098     2.1469 H       
  54 H54           -0.5800     3.2195     1.2285 H       
  55 H55           -1.6249     1.7917     1.4227 H       
  56 H56            2.2430     0.2199    -2.5360 H       
  57 H57            0.8193    -0.6393    -2.5089 H       
@<TRIPOS>BOND
   1    1    2 1
   2    1    4 1
   3    1    5 1
   4    1   31 1
   5    2    3 1
   6    2   33 1
   7    2   34 1
   8    3    4 1
   9    3    6 1
  10    3   32 1
  11    4   35 1
  12    4   36 1
  13    5   37 1
  14    6    7 ar
  15    6   11 ar
  16    7    8 ar
  17    7   38 1
  18    8    9 ar
  19    8   39 1
  20    9   10 ar
  21    9   19 1
  22   10   11 ar
  23   10   40 1
  24   11   41 1
  25   12   13 1
  26   12   21 1
  27   12   24 1
  28   13   14 1
  29   13   22 2
  30   14   15 2
  31   15   16 1
  32   15   42 1
  33   16   17 1
  34   16   21 2
  35   17   18 2
  36   17   43 1
  37   18   19 1
  38   18   26 1
  39   19   20 1
  40   19   44 1
  41   20   21 1
  42   20   45 1
  43   22   23 1
  44   22   46 1
  45   23   24 2
  46   23   30 1
  47   25   26 2
  48   25   29 1
  49   25   47 1
  50   26   27 1
  51   27   28 2
  52   27   48 1
  53   28   29 1
  54   28   49 1
  55   30   50 1
  56   30   51 1
  57   30   52 1
  58   31   53 1
  59   31   54 1
  60   31   55 1
  61   32   56 1
  62   32   57 1

#	End of record

