#	Name: ASD02588023
#	Creating user name:	WinNT
#	Creation time:	15. 06. 2019 20:25

#	Modifying user name:	WinNT
#	Modification time:	15. 06. 2019 20:25

#	Program:	/corina/corina34_cracker 3.40 0067  02.08.2006

@<TRIPOS>MOLECULE
ASD02588023
  76   78    0    0    0
SMALL
NO_CHARGES


@<TRIPOS>ATOM
   1 C1            -0.0154     1.3868     0.0550 C.2     
   2 N2            -0.0249     0.0134     0.0672 N.pl3   
   3 N3            -1.2606    -0.6469     0.1397 N.2     
   4 C4            -2.3757     0.0490     0.1941 C.2     
   5 N5            -2.3749     1.3874     0.1823 N.2     
   6 C6            -1.2504     2.0753     0.1212 C.2     
   7 C7             1.3119     1.8191    -0.0205 C.2     
   8 C8             2.1228     0.6627    -0.0545 C.2     
   9 C9             1.2649    -0.4428     0.0013 C.2     
  10 N10           -1.2789     3.4566     0.1108 N.pl3   
  11 C11            1.7640     3.1774    -0.0565 C.1     
  12 C12            3.5523     0.6277    -0.1320 C.1     
  13 C13           -3.6690    -0.6691     0.2702 C.2     
  14 O14           -4.7028    -0.0458     0.4167 O.2     
  15 C15           -3.7018    -2.0973     0.1713 C.1     
  16 C16            2.1348     4.2909    -0.0861 C.1     
  17 C17            4.7242     0.5989    -0.1955 C.1     
  18 C18           -3.7288    -3.2682     0.0902 C.1     
  19 Si19           2.7347     6.0931    -0.1339 Si      
  20 C20            4.5947     6.1259    -0.2348 C.3     
  21 C21            2.0167     6.9473    -1.6257 C.3     
  22 C22            2.1810     6.9731     1.4120 C.3     
  23 Si23          -3.7724    -5.1631    -0.0411 Si      
  24 C24           -5.5342    -5.7544     0.0902 C.3     
  25 C25           -3.0616    -5.6885    -1.6811 C.3     
  26 C26           -2.7640    -5.9046     1.3389 C.3     
  27 Si27           6.6208     0.5523    -0.2982 Si      
  28 C28            7.1986    -1.2187    -0.3142 C.3     
  29 C29            7.1792     1.4018    -1.8595 C.3     
  30 C30            7.3444     1.4283     1.1782 C.3     
  31 C31            1.6633    -1.8015    -0.0079 C.2     
  32 O32            1.8220    -2.3819    -1.0658 O.2     
  33 O33            1.8671    -2.4530     1.1566 O.3     
  34 C34            2.3818    -3.7835     1.0741 C.3     
  35 C35            2.6550    -4.3034     2.4619 C.ar    
  36 C36            1.7029    -5.0634     3.1152 C.ar    
  37 C37            1.9535    -5.5402     4.3883 C.ar    
  38 C38            3.1564    -5.2574     5.0079 C.ar    
  39 C39            4.1089    -4.4982     4.3543 C.ar    
  40 C40            3.8600    -4.0251     3.0795 C.ar    
  41 H41           -2.1277     3.9245     0.1485 H       
  42 H42           -0.4500     3.9585     0.0659 H       
  43 H43            4.9186     5.6110    -1.1392 H       
  44 H44            4.9389     7.1598    -0.2622 H       
  45 H45            5.0148     5.6262     0.6381 H       
  46 H46            0.9285     6.9281    -1.5667 H       
  47 H47            2.3609     7.9811    -1.6531 H       
  48 H48            2.3406     6.4324    -2.5302 H       
  49 H49            2.6011     6.4734     2.2848 H       
  50 H50            2.5252     8.0070     1.3846 H       
  51 H51            1.0928     6.9539     1.4710 H       
  52 H52           -6.1241    -5.3206    -0.7172 H       
  53 H53           -5.5592    -6.8415     0.0149 H       
  54 H54           -5.9500    -5.4470     1.0497 H       
  55 H55           -2.0625    -5.2681    -1.7956 H       
  56 H56           -3.0048    -6.7763    -1.7207 H       
  57 H57           -3.7018    -5.3286    -2.4866 H       
  58 H58           -3.2305    -5.6707     2.2958 H       
  59 H59           -2.7157    -6.9862     1.2129 H       
  60 H60           -1.7560    -5.4906     1.3152 H       
  61 H61            6.7752    -1.7312    -1.1780 H       
  62 H62            8.2867    -1.2454    -0.3732 H       
  63 H63            6.8719    -1.7157     0.5992 H       
  64 H64            6.8411     2.4380    -1.8501 H       
  65 H65            8.2673     1.3751    -1.9184 H       
  66 H66            6.7558     0.8893    -2.7233 H       
  67 H67            7.0178     0.9313     2.0916 H       
  68 H68            8.4325     1.4016     1.1192 H       
  69 H69            7.0064     2.4645     1.1875 H       
  70 H70            1.6511    -4.4260     0.5827 H       
  71 H71            3.3075    -3.7799     0.4986 H       
  72 H72            0.7631    -5.2843     2.6311 H       
  73 H73            1.2093    -6.1334     4.8989 H       
  74 H74            3.3519    -5.6294     6.0028 H       
  75 H75            5.0486    -4.2770     4.8385 H       
  76 H76            4.6057    -3.4350     2.5673 H       
@<TRIPOS>BOND
   1    1    2 1
   2    1    7 2
   3    1    6 1
   4    2    3 1
   5    2    9 1
   6    3    4 2
   7    4    5 1
   8    4   13 1
   9    5    6 2
  10    6   10 1
  11    7    8 1
  12    7   11 1
  13    8    9 2
  14    8   12 1
  15    9   31 1
  16   10   41 1
  17   10   42 1
  18   11   16 3
  19   12   17 3
  20   13   14 2
  21   13   15 1
  22   15   18 3
  23   16   19 1
  24   17   27 1
  25   18   23 1
  26   19   20 1
  27   19   21 1
  28   19   22 1
  29   20   43 1
  30   20   44 1
  31   20   45 1
  32   21   46 1
  33   21   47 1
  34   21   48 1
  35   22   49 1
  36   22   50 1
  37   22   51 1
  38   23   24 1
  39   23   25 1
  40   23   26 1
  41   24   52 1
  42   24   53 1
  43   24   54 1
  44   25   55 1
  45   25   56 1
  46   25   57 1
  47   26   58 1
  48   26   59 1
  49   26   60 1
  50   27   28 1
  51   27   29 1
  52   27   30 1
  53   28   61 1
  54   28   62 1
  55   28   63 1
  56   29   64 1
  57   29   65 1
  58   29   66 1
  59   30   67 1
  60   30   68 1
  61   30   69 1
  62   31   32 2
  63   31   33 1
  64   33   34 1
  65   34   35 1
  66   34   70 1
  67   34   71 1
  68   35   36 ar
  69   35   40 ar
  70   36   37 ar
  71   36   72 1
  72   37   38 ar
  73   37   73 1
  74   38   39 ar
  75   38   74 1
  76   39   40 ar
  77   39   75 1
  78   40   76 1

#	End of record

