#	Name: ASD01152572
#	Creating user name:	WinNT
#	Creation time:	15. 06. 2019 19:06

#	Modifying user name:	WinNT
#	Modification time:	15. 06. 2019 19:06

#	Program:	/corina/corina34_cracker 3.40 0067  02.08.2006

@<TRIPOS>MOLECULE
ASD01152572
  54   56    0    0    0
SMALL
NO_CHARGES


@<TRIPOS>ATOM
   1 C1            -0.2492     1.8706     0.1244 C.2     
   2 N2            -0.0248     0.5896     0.2462 N.2     
   3 N3            -1.0688    -0.3270     0.3692 N.am    
   4 C4            -2.3404     0.0503     0.5819 C.2     
   5 C5            -2.6742     1.5043     0.8197 C.3     
   6 C6            -1.6422     2.3423     0.0989 C.2     
   7 C7            -2.6255     1.8087     2.3183 C.3     
   8 O8            -1.9509     3.3604    -0.4854 O.2     
   9 O9             0.7827     2.7496     0.0288 O.3     
  10 C10           -0.7806    -1.6925     0.2667 C.ar    
  11 O11           -3.2243    -0.7798     0.5826 O.2     
  12 C12           -3.0781     3.2260     2.5579 C.ar    
  13 C13            0.2117    -2.2543     1.0574 C.ar    
  14 C14           -1.4918    -2.4887    -0.6231 C.ar    
  15 C15           -1.2078    -3.8366    -0.7249 C.ar    
  16 C16           -0.2166    -4.3980     0.0575 C.ar    
  17 C17            0.4944    -3.6087     0.9526 C.ar    
  18 C18           -4.4154     3.4958     2.7818 C.ar    
  19 C19           -2.1551     4.2551     2.5595 C.ar    
  20 C20           -2.5696     5.5552     2.7797 C.ar    
  21 C21           -4.8311     4.7954     3.0016 C.ar    
  22 C22           -3.9085     5.8265     2.9981 C.ar    
  23 Cl23          -4.4298     7.4591     3.2748 Cl      
  24 C24            2.1020     2.2011     0.0058 C.3     
  25 N25            2.4409     1.7981    -1.3656 N.3     
  26 C26            3.8944     1.8224    -1.5775 C.3     
  27 C27            1.8855     0.4744    -1.6777 C.3     
  28 N28            1.4946    -4.1790     1.7479 N.am    
  29 C29            1.7048    -3.7208     2.9978 C.2     
  30 O30            0.9685    -2.8789     3.4669 O.2     
  31 C31            2.8547    -4.2546     3.8125 C.3     
  32 H32           -3.6684     1.7232     0.4299 H       
  33 H33           -3.2842     1.1221     2.8501 H       
  34 H34           -1.6048     1.6870     2.6807 H       
  35 H35            0.7630    -1.6386     1.7527 H       
  36 H36           -2.2675    -2.0531    -1.2354 H       
  37 H37           -1.7618    -4.4532    -1.4171 H       
  38 H38            0.0026    -5.4523    -0.0240 H       
  39 H39           -5.1354     2.6908     2.7844 H       
  40 H40           -1.1099     4.0432     2.3890 H       
  41 H41           -1.8483     6.3590     2.7816 H       
  42 H42           -5.8758     5.0061     3.1761 H       
  43 H43            2.8135     2.9517     0.3502 H       
  44 H44            2.1455     1.3314     0.6614 H       
  45 H45            4.3745     1.1340    -0.8821 H       
  46 H46            4.1175     1.5199    -2.6006 H       
  47 H47            4.2695     2.8316    -1.4070 H       
  48 H48            0.7992     0.5075    -1.5951 H       
  49 H49            2.1643     0.1937    -2.6933 H       
  50 H50            2.2810    -0.2602    -0.9762 H       
  51 H51            2.0366    -4.9041     1.3995 H       
  52 H52            3.3996    -4.9969     3.2292 H       
  53 H53            3.5246    -3.4359     4.0754 H       
  54 H54            2.4717    -4.7171     4.7222 H       
@<TRIPOS>BOND
   1    1    2 2
   2    1    9 1
   3    1    6 1
   4    2    3 1
   5    3    4 am
   6    3   10 1
   7    4    5 1
   8    4   11 2
   9    5    6 1
  10    5    7 1
  11    5   32 1
  12    6    8 2
  13    7   12 1
  14    7   33 1
  15    7   34 1
  16    9   24 1
  17   10   13 ar
  18   10   14 ar
  19   12   18 ar
  20   12   19 ar
  21   13   17 ar
  22   13   35 1
  23   14   15 ar
  24   14   36 1
  25   15   16 ar
  26   15   37 1
  27   16   17 ar
  28   16   38 1
  29   17   28 1
  30   18   21 ar
  31   18   39 1
  32   19   20 ar
  33   19   40 1
  34   20   22 ar
  35   20   41 1
  36   21   22 ar
  37   21   42 1
  38   22   23 1
  39   24   25 1
  40   24   43 1
  41   24   44 1
  42   25   26 1
  43   25   27 1
  44   26   45 1
  45   26   46 1
  46   26   47 1
  47   27   48 1
  48   27   49 1
  49   27   50 1
  50   28   29 am
  51   28   51 1
  52   29   30 2
  53   29   31 1
  54   31   52 1
  55   31   53 1
  56   31   54 1

#	End of record

