#	Name: ASD04122015
#	Creating user name:	WinNT
#	Creation time:	15. 06. 2019 20:48

#	Modifying user name:	WinNT
#	Modification time:	15. 06. 2019 20:48

#	Program:	/corina/corina34_cracker 3.40 0067  02.08.2006

@<TRIPOS>MOLECULE
ASD04122015
  57   61    0    0    0
SMALL
NO_CHARGES


@<TRIPOS>ATOM
   1 C1             0.0210     2.2275     0.0258 C.ar    
   2 C2             0.4446     0.9189     0.2786 C.ar    
   3 N3            -0.4577    -0.1328     0.4974 N.pl3   
   4 C4            -1.7124    -0.3300    -0.0213 C.2     
   5 C5            -2.5076     0.5408    -0.8037 C.2     
   6 C6            -2.0642     1.9264    -1.1023 C.3     
   7 O7            -1.2921     2.4863    -0.0694 O.3     
   8 C8            -0.1542    -1.2001     1.2946 C.2     
   9 C9            -1.1609    -2.1025     1.2319 C.2     
  10 C10           -2.1510    -1.5811     0.4023 C.2     
  11 C11            0.9561     3.2346    -0.1505 C.ar    
  12 C12            2.3067     2.9505    -0.0922 C.ar    
  13 C13            2.7301     1.6550     0.1426 C.ar    
  14 C14            1.8074     0.6460     0.3268 C.ar    
  15 C15           -1.2464     1.9136    -2.3680 C.ar    
  16 C16           -0.5145     3.0293    -2.7294 C.ar    
  17 C17            0.2356     3.0175    -3.8904 C.ar    
  18 C18            0.2542     1.8900    -4.6899 C.ar    
  19 C19           -0.4769     0.7740    -4.3281 C.ar    
  20 C20           -1.2236     0.7842    -3.1648 C.ar    
  21 O21           -3.5711     0.1480    -1.2390 O.2     
  22 C22           -3.3004     2.8004    -1.3234 C.3     
  23 C23           -4.1224     2.8568    -0.0342 C.3     
  24 C24            1.0712     1.8775    -5.9562 C.3     
  25 S25            2.7431     1.2757    -5.5912 S.3     
  26 C26            3.5362     1.3305    -7.1636 C.ar    
  27 C27            2.8373     1.7702    -8.2812 C.ar    
  28 C28            3.4621     1.8118    -9.5121 C.ar    
  29 C29            4.7817     1.4166    -9.6332 C.ar    
  30 C30            5.4805     0.9778    -8.5230 C.ar    
  31 C31            4.8642     0.9394    -7.2881 C.ar    
  32 C32            6.9181     0.5472    -8.6603 C.3     
  33 F33            7.3191     0.6795    -9.9940 F       
  34 F34            7.7254     1.3514    -7.8486 F       
  35 F35            7.0443    -0.7891    -8.2658 F       
  36 H36            0.7462    -1.3069     1.8814 H       
  37 H37           -1.1914    -3.0572     1.7358 H       
  38 H38           -3.0835    -2.0576     0.1380 H       
  39 H39            0.6274     4.2468    -0.3346 H       
  40 H40            3.0313     3.7393    -0.2304 H       
  41 H41            3.7862     1.4325     0.1816 H       
  42 H42            2.1458    -0.3631     0.5097 H       
  43 H43           -0.5291     3.9102    -2.1048 H       
  44 H44            0.8068     3.8894    -4.1731 H       
  45 H45           -0.4626    -0.1068    -4.9529 H       
  46 H46           -1.7948    -0.0877    -2.8821 H       
  47 H47           -2.9886     3.8076    -1.5998 H       
  48 H48           -3.9074     2.3756    -2.1230 H       
  49 H49           -5.0031     3.4794    -0.1917 H       
  50 H50           -4.4342     1.8496     0.2423 H       
  51 H51           -3.5154     3.2815     0.7654 H       
  52 H52            0.5997     1.2198    -6.6863 H       
  53 H53            1.1291     2.8878    -6.3612 H       
  54 H54            1.8065     2.0788    -8.1874 H       
  55 H55            2.9194     2.1531   -10.3812 H       
  56 H56            5.2678     1.4501   -10.5970 H       
  57 H57            5.4104     0.5968    -6.4217 H       
@<TRIPOS>BOND
   1    1    2 ar
   2    1   11 ar
   3    1    7 1
   4    2    3 1
   5    2   14 ar
   6    3    8 1
   7    3    4 1
   8    4    5 1
   9    4   10 2
  10    5   21 2
  11    5    6 1
  12    6    7 1
  13    6   15 1
  14    6   22 1
  15    8    9 2
  16    8   36 1
  17    9   10 1
  18    9   37 1
  19   10   38 1
  20   11   12 ar
  21   11   39 1
  22   12   13 ar
  23   12   40 1
  24   13   14 ar
  25   13   41 1
  26   14   42 1
  27   15   16 ar
  28   15   20 ar
  29   16   17 ar
  30   16   43 1
  31   17   18 ar
  32   17   44 1
  33   18   19 ar
  34   18   24 1
  35   19   20 ar
  36   19   45 1
  37   20   46 1
  38   22   23 1
  39   22   47 1
  40   22   48 1
  41   23   49 1
  42   23   50 1
  43   23   51 1
  44   24   25 1
  45   24   52 1
  46   24   53 1
  47   25   26 1
  48   26   27 ar
  49   26   31 ar
  50   27   28 ar
  51   27   54 1
  52   28   29 ar
  53   28   55 1
  54   29   30 ar
  55   29   56 1
  56   30   31 ar
  57   30   32 1
  58   31   57 1
  59   32   33 1
  60   32   34 1
  61   32   35 1

#	End of record

