#	Name: ASD01120248
#	Creating user name:	WinNT
#	Creation time:	15. 06. 2019 18:59

#	Modifying user name:	WinNT
#	Modification time:	15. 06. 2019 18:59

#	Program:	/corina/corina34_cracker 3.40 0067  02.08.2006

@<TRIPOS>MOLECULE
ASD01120248
  56   58    0    0    0
SMALL
NO_CHARGES


@<TRIPOS>ATOM
   1 C1            -8.9111     7.0692     3.4042 C.ar    
   2 C2            -9.2446     7.3687     2.0968 C.ar    
   3 C3            -9.2261     6.3766     1.1340 C.ar    
   4 C4            -8.8735     5.0855     1.4789 C.ar    
   5 C5            -8.5390     4.7860     2.7865 C.ar    
   6 C6            -8.5533     5.7787     3.7481 C.ar    
   7 S7            -8.0901     3.1399     3.2262 S.o2    
   8 N8            -6.4500     3.0117     3.0364 N.am    
   9 C9            -5.6228     3.7363     3.8156 C.2     
  10 N10           -4.2880     3.6320     3.6612 N.am    
  11 O11           -8.3440     3.0131     4.6186 O.2     
  12 O12           -8.6747     2.2899     2.2490 O.2     
  13 O13           -6.0807     4.4840     4.6580 O.2     
  14 C14           -3.8072    11.6583     7.1110 C.ar    
  15 C15           -5.0784    12.0787     7.4539 C.ar    
  16 C16           -5.6909    11.5754     8.5866 C.ar    
  17 C17           -5.0320    10.6518     9.3761 C.ar    
  18 C18           -3.7604    10.2313     9.0331 C.ar    
  19 C19           -3.1503    10.7302     7.8976 C.ar    
  20 S20           -2.9204     9.0540    10.0395 S.o2    
  21 N21           -3.3068     7.5509     9.4618 N.am    
  22 C22           -2.9136     7.1821     8.2265 C.2     
  23 N23           -3.2280     5.9588     7.7563 N.am    
  24 O24           -1.5324     9.2337     9.7937 O.2     
  25 O25           -3.4989     9.1472    11.3340 O.2     
  26 O26           -2.2751     7.9531     7.5363 O.2     
  27 C27           -3.1396    12.2070     5.8764 C.3     
  28 C28           -8.9313     8.1505     4.4537 C.3     
  29 C29           -2.9043     5.6106     6.4401 C.ar    
  30 C30           -1.7300     6.0802     5.8654 C.ar    
  31 C31           -1.4100     5.7372     4.5659 C.ar    
  32 C32           -2.2557     4.9259     3.8342 C.ar    
  33 C33           -3.4314     4.4530     4.4032 C.ar    
  34 C34           -3.7531     4.7913     5.7098 C.ar    
  35 H35           -9.5201     8.3776     1.8274 H       
  36 H36           -9.4874     6.6105     0.1126 H       
  37 H37           -8.8597     4.3104     0.7269 H       
  38 H38           -8.2919     5.5448     4.7696 H       
  39 H39           -6.0847     2.4152     2.3644 H       
  40 H40           -3.9210     2.9878     3.0356 H       
  41 H41           -5.5932    12.8006     6.8373 H       
  42 H42           -6.6840    11.9044     8.8550 H       
  43 H43           -5.5102    10.2592    10.2613 H       
  44 H44           -2.1570    10.4018     7.6297 H       
  45 H45           -3.8161     6.9358    10.0124 H       
  46 H46           -3.6787     5.3198     8.3302 H       
  47 H47           -2.5757    13.1030     6.1360 H       
  48 H48           -2.4625    11.4578     5.4661 H       
  49 H49           -3.8976    12.4570     5.1341 H       
  50 H50           -9.9207     8.1967     4.9087 H       
  51 H51           -8.1890     7.9271     5.2199 H       
  52 H52           -8.6989     9.1099     3.9914 H       
  53 H53           -1.0667     6.7143     6.4349 H       
  54 H54           -0.4968     6.1042     4.1210 H       
  55 H55           -2.0027     4.6595     2.8186 H       
  56 H56           -4.6664     4.4247     6.1545 H       
@<TRIPOS>BOND
   1    1    2 ar
   2    1   28 1
   3    1    6 ar
   4    2    3 ar
   5    2   35 1
   6    3    4 ar
   7    3   36 1
   8    4    5 ar
   9    4   37 1
  10    5    6 ar
  11    5    7 1
  12    6   38 1
  13    7    8 am
  14    7   11 2
  15    7   12 2
  16    8    9 am
  17    8   39 1
  18    9   10 am
  19    9   13 2
  20   10   33 1
  21   10   40 1
  22   14   15 ar
  23   14   27 1
  24   14   19 ar
  25   15   16 ar
  26   15   41 1
  27   16   17 ar
  28   16   42 1
  29   17   18 ar
  30   17   43 1
  31   18   19 ar
  32   18   20 1
  33   19   44 1
  34   20   21 am
  35   20   24 2
  36   20   25 2
  37   21   22 am
  38   21   45 1
  39   22   23 am
  40   22   26 2
  41   23   29 1
  42   23   46 1
  43   27   47 1
  44   27   48 1
  45   27   49 1
  46   28   50 1
  47   28   51 1
  48   28   52 1
  49   29   30 ar
  50   29   34 ar
  51   30   31 ar
  52   30   53 1
  53   31   32 ar
  54   31   54 1
  55   32   33 ar
  56   32   55 1
  57   33   34 ar
  58   34   56 1

#	End of record

