#	Name: ASD01140635
#	Creating user name:	WinNT
#	Creation time:	15. 06. 2019 19:01

#	Modifying user name:	WinNT
#	Modification time:	15. 06. 2019 19:01

#	Program:	/corina/corina34_cracker 3.40 0067  02.08.2006

@<TRIPOS>MOLECULE
ASD01140635
  41   43    0    0    0
SMALL
NO_CHARGES


@<TRIPOS>ATOM
   1 C1             0.0004     1.3377    -0.1895 C.2     
   2 C2             0.0246    -0.0209    -0.1321 C.2     
   3 C3             1.2519    -0.6898     0.0209 C.2     
   4 C4             2.4032     0.0119     0.1106 C.2     
   5 C5             1.2099     2.0559    -0.0945 C.2     
   6 N6             1.4762     3.3539    -0.1204 N.2     
   7 N7             2.3916     1.3772     0.0547 N.pl3   
   8 C8             3.3887     2.3097     0.1190 C.2     
   9 C9             2.8001     3.5334     0.0077 C.2     
  10 C10            3.5024     4.8406     0.0254 C.ar    
  11 C11            2.9671     5.9118     0.7378 C.ar    
  12 C12            3.6234     7.1255     0.7515 C.ar    
  13 C13            4.8127     7.2801     0.0579 C.ar    
  14 C14            5.3485     6.2176    -0.6517 C.ar    
  15 C15            4.7020     4.9987    -0.6657 C.ar    
  16 C16            4.8616     2.0359     0.2820 C.3     
  17 N17            5.4545     1.7573    -1.0284 N.am    
  18 C18            6.7702     1.4828    -1.1282 C.2     
  19 C19            7.3800     1.1962    -2.4762 C.3     
  20 O20            7.4634     1.4663    -0.1332 O.2     
  21 F21            1.2802    -2.0393     0.0788 F       
  22 F22            5.4516     8.4704     0.0732 F       
  23 C23            7.1844     2.4062    -3.3921 C.3     
  24 C24            8.8754     0.9183    -2.3108 C.3     
  25 H25           -0.9362     1.8614    -0.3113 H       
  26 H26           -0.8946    -0.5833    -0.2033 H       
  27 H27            3.3409    -0.5109     0.2280 H       
  28 H28            2.0397     5.7924     1.2782 H       
  29 H29            3.2092     7.9563     1.3034 H       
  30 H30            6.2757     6.3425    -1.1914 H       
  31 H31            5.1227     4.1697    -1.2155 H       
  32 H32            5.3466     2.9071     0.7224 H       
  33 H33            5.0010     1.1739     0.9344 H       
  34 H34            4.9000     1.7705    -1.8243 H       
  35 H35            6.8950     0.3250    -2.9166 H       
  36 H36            7.6694     3.2773    -2.9517 H       
  37 H37            7.6255     2.1989    -4.3670 H       
  38 H38            6.1190     2.6042    -3.5099 H       
  39 H39            9.0147     0.0563    -1.6583 H       
  40 H40            9.3165     0.7110    -3.2858 H       
  41 H41            9.3604     1.7895    -1.8704 H       
@<TRIPOS>BOND
   1    1    2 2
   2    1    5 1
   3    1   25 1
   4    2    3 1
   5    2   26 1
   6    3    4 2
   7    3   21 1
   8    4    7 1
   9    4   27 1
  10    5    7 1
  11    5    6 2
  12    6    9 1
  13    7    8 1
  14    8    9 2
  15    8   16 1
  16    9   10 1
  17   10   11 ar
  18   10   15 ar
  19   11   12 ar
  20   11   28 1
  21   12   13 ar
  22   12   29 1
  23   13   14 ar
  24   13   22 1
  25   14   15 ar
  26   14   30 1
  27   15   31 1
  28   16   17 1
  29   16   32 1
  30   16   33 1
  31   17   18 am
  32   17   34 1
  33   18   19 1
  34   18   20 2
  35   19   23 1
  36   19   24 1
  37   19   35 1
  38   23   36 1
  39   23   37 1
  40   23   38 1
  41   24   39 1
  42   24   40 1
  43   24   41 1

#	End of record

