#	Name: ASD00069086
#	Creating user name:	WinNT
#	Creation time:	15. 06. 2019 18:29

#	Modifying user name:	WinNT
#	Modification time:	15. 06. 2019 18:29

#	Program:	/corina/corina34_cracker 3.40 0067  02.08.2006

@<TRIPOS>MOLECULE
ASD00069086
  62   67    0    0    0
SMALL
NO_CHARGES


@<TRIPOS>ATOM
   1 C1            -0.4888     1.6600     0.3463 C.3     
   2 C2            -1.0565     0.3007     0.7594 C.3     
   3 C3            -0.3113    -0.2093     1.9944 C.3     
   4 C4             1.1763    -0.3558     1.6681 C.3     
   5 C5             1.7441     1.0035     1.2550 C.3     
   6 C6             0.9988     1.5135     0.0199 C.3     
   7 C7            -1.2228     2.1624    -0.8702 C.2     
   8 O8            -2.1126     1.4984    -1.3587 O.2     
   9 N9            -0.8907     3.3494    -1.4153 N.am    
  10 F10            1.8578    -0.8222     2.7974 F       
  11 F11            1.3359    -1.2664     0.6180 F       
  12 N12           -3.2605     5.2374    -6.0333 N.pl3   
  13 N13           -3.3008     6.6020    -5.7308 N.2     
  14 C14           -2.7828     6.8125    -4.5424 C.2     
  15 C15           -2.3655     5.5114    -4.0057 C.ar    
  16 C16           -1.7639     5.1049    -2.8128 C.ar    
  17 C17           -1.4944     3.7655    -2.6089 C.ar    
  18 C18           -1.8204     2.8255    -3.5867 C.ar    
  19 C19           -2.4082     3.2117    -4.7565 C.ar    
  20 C20           -2.6901     4.5568    -4.9857 C.ar    
  21 C21           -3.7548     4.6286    -7.2707 C.3     
  22 C22           -5.2849     4.5874    -7.2436 C.3     
  23 C23           -5.7957     4.0052    -8.5652 C.3     
  24 C24           -5.2574     4.8496    -9.7243 C.3     
  25 C25           -3.7283     4.8806    -9.6556 C.3     
  26 O26           -3.3202     5.4037    -8.3899 O.3     
  27 C27           -2.6447     8.1190    -3.8696 C.2     
  28 N28           -3.0424     9.3208    -4.3928 N.pl3   
  29 C29           -2.7411    10.2931    -3.4580 C.ar    
  30 C30           -2.1539     9.6230    -2.3698 C.ar    
  31 N31           -2.1278     8.3035    -2.6782 N.2     
  32 C32           -1.7379    10.3565    -1.2541 C.ar    
  33 C33           -1.9066    11.7221    -1.2323 C.ar    
  34 C34           -2.4865    12.3779    -2.3087 C.ar    
  35 C35           -2.9026    11.6703    -3.4171 C.ar    
  36 H36           -0.6131     2.3695     1.1644 H       
  37 H37           -2.1163     0.4050     0.9919 H       
  38 H38           -0.9322    -0.4088    -0.0587 H       
  39 H39           -0.4356     0.5001     2.8125 H       
  40 H40           -0.7157    -1.1778     2.2887 H       
  41 H41            1.6198     1.7130     2.0731 H       
  42 H42            2.8039     0.8992     1.0225 H       
  43 H43            1.1232     0.8041    -0.7982 H       
  44 H44            1.4033     2.4820    -0.2744 H       
  45 H45           -0.2336     3.9156    -0.9811 H       
  46 H46           -1.5109     5.8322    -2.0556 H       
  47 H47           -1.6050     1.7810    -3.4165 H       
  48 H48           -2.6547     2.4737    -5.5055 H       
  49 H49           -3.3653     3.6142    -7.3576 H       
  50 H50           -5.6178     3.9603    -6.4165 H       
  51 H51           -5.6743     5.5974    -7.1158 H       
  52 H52           -5.4472     2.9778    -8.6699 H       
  53 H53           -6.8855     4.0248    -8.5752 H       
  54 H54           -5.5706     4.4100   -10.6713 H       
  55 H55           -5.6462     5.8649    -9.6466 H       
  56 H56           -3.3385     3.8696    -9.7739 H       
  57 H57           -3.3414     5.5152   -10.4529 H       
  58 H58           -3.4579     9.4628    -5.2577 H       
  59 H59           -1.2860     9.8529    -0.4123 H       
  60 H60           -1.5854    12.2879    -0.3703 H       
  61 H61           -2.6133    13.4500    -2.2784 H       
  62 H62           -3.3529    12.1874    -4.2516 H       
@<TRIPOS>BOND
   1    1    2 1
   2    1    6 1
   3    1    7 1
   4    1   36 1
   5    2    3 1
   6    2   37 1
   7    2   38 1
   8    3    4 1
   9    3   39 1
  10    3   40 1
  11    4    5 1
  12    4   10 1
  13    4   11 1
  14    5    6 1
  15    5   41 1
  16    5   42 1
  17    6   43 1
  18    6   44 1
  19    7    8 2
  20    7    9 am
  21    9   17 1
  22    9   45 1
  23   12   13 1
  24   12   20 1
  25   12   21 1
  26   13   14 2
  27   14   15 1
  28   14   27 1
  29   15   16 ar
  30   15   20 ar
  31   16   17 ar
  32   16   46 1
  33   17   18 ar
  34   18   19 ar
  35   18   47 1
  36   19   20 ar
  37   19   48 1
  38   21   22 1
  39   21   26 1
  40   21   49 1
  41   22   23 1
  42   22   50 1
  43   22   51 1
  44   23   24 1
  45   23   52 1
  46   23   53 1
  47   24   25 1
  48   24   54 1
  49   24   55 1
  50   25   26 1
  51   25   56 1
  52   25   57 1
  53   27   28 1
  54   27   31 2
  55   28   29 1
  56   28   58 1
  57   29   30 ar
  58   29   35 ar
  59   30   31 1
  60   30   32 ar
  61   32   33 ar
  62   32   59 1
  63   33   34 ar
  64   33   60 1
  65   34   35 ar
  66   34   61 1
  67   35   62 1

#	End of record

