#	Name: ASD01411144
#	Creating user name:	WinNT
#	Creation time:	15. 06. 2019 19:19

#	Modifying user name:	WinNT
#	Modification time:	15. 06. 2019 19:19

#	Program:	/corina/corina34_cracker 3.40 0067  02.08.2006

@<TRIPOS>MOLECULE
ASD01411144
  43   45    0    0    0
SMALL
NO_CHARGES


@<TRIPOS>ATOM
   1 C1            -0.0460     1.3070    -0.2021 C.ar    
   2 C2             0.0369    -0.0323    -0.5148 C.ar    
   3 C3             1.2684    -0.6906    -0.4498 C.ar    
   4 C4             2.4149     0.0195    -0.0653 C.ar    
   5 C5             2.3136     1.3733     0.2475 C.ar    
   6 C6             1.0860     2.0093     0.1777 C.ar    
   7 C7             1.3612    -2.1233    -0.7829 C.2     
   8 N8             3.6482    -0.6252     0.0039 N.am    
   9 O9             3.4201     2.0695     0.6217 O.3     
  10 C10            3.2426     3.4540     0.9280 C.3     
  11 C11            4.5677     4.0557     1.3193 C.ar    
  12 C12            4.7672     0.0172    -0.3853 C.2     
  13 C13            6.0801    -0.6529    -0.2757 C.ar    
  14 O14            4.6968     1.1477    -0.8264 O.2     
  15 C15            7.2411     0.0096    -0.6779 C.ar    
  16 C16            8.4633    -0.6214    -0.5726 C.ar    
  17 C17            8.5399    -1.9081    -0.0696 C.ar    
  18 C18            7.3930    -2.5705     0.3308 C.ar    
  19 C19            6.1651    -1.9490     0.2357 C.ar    
  20 C20            4.9670     4.0462     2.6428 C.ar    
  21 C21            5.3860     4.6120     0.3539 C.ar    
  22 C22            6.6016     5.1636     0.7120 C.ar    
  23 C23            6.9994     5.1591     2.0371 C.ar    
  24 C24            6.1824     4.5976     3.0022 C.ar    
  25 Cl25           8.5261     5.8518     2.4878 Cl      
  26 O26            0.2422    -2.8298    -1.0369 O.3     
  27 O27            2.4468    -2.6673    -0.8287 O.2     
  28 H28           -0.9984     1.8133    -0.2578 H       
  29 H29           -0.8498    -0.5737    -0.8098 H       
  30 H30            1.0104     3.0590     0.4204 H       
  31 H31            3.7013    -1.5365     0.3321 H       
  32 H32            2.8524     3.9727     0.0524 H       
  33 H33            2.5391     3.5560     1.7543 H       
  34 H34            7.1826     1.0138    -1.0710 H       
  35 H35            9.3623    -0.1101    -0.8837 H       
  36 H36            9.4992    -2.3978     0.0104 H       
  37 H37            7.4597    -3.5749     0.7222 H       
  38 H38            5.2711    -2.4656     0.5525 H       
  39 H39            4.3290     3.6082     3.3961 H       
  40 H40            5.0755     4.6151    -0.6805 H       
  41 H41            7.2409     5.5978    -0.0423 H       
  42 H42            6.4941     4.5904     4.0362 H       
  43 H43            0.3534    -3.7663    -1.2508 H       
@<TRIPOS>BOND
   1    1    2 ar
   2    1    6 ar
   3    1   28 1
   4    2    3 ar
   5    2   29 1
   6    3    4 ar
   7    3    7 1
   8    4    5 ar
   9    4    8 1
  10    5    6 ar
  11    5    9 1
  12    6   30 1
  13    7   26 1
  14    7   27 2
  15    8   12 am
  16    8   31 1
  17    9   10 1
  18   10   11 1
  19   10   32 1
  20   10   33 1
  21   11   21 ar
  22   11   20 ar
  23   12   13 1
  24   12   14 2
  25   13   15 ar
  26   13   19 ar
  27   15   16 ar
  28   15   34 1
  29   16   17 ar
  30   16   35 1
  31   17   18 ar
  32   17   36 1
  33   18   19 ar
  34   18   37 1
  35   19   38 1
  36   20   24 ar
  37   20   39 1
  38   21   22 ar
  39   21   40 1
  40   22   23 ar
  41   22   41 1
  42   23   24 ar
  43   23   25 1
  44   24   42 1
  45   26   43 1

#	End of record

