#	Name: ASD01148015
#	Creating user name:	WinNT
#	Creation time:	15. 06. 2019 19:01

#	Modifying user name:	WinNT
#	Modification time:	15. 06. 2019 19:01

#	Program:	/corina/corina34_cracker 3.40 0067  02.08.2006

@<TRIPOS>MOLECULE
ASD01148015
  36   36    0    0    0
SMALL
NO_CHARGES


@<TRIPOS>ATOM
   1 C1            -0.0184     1.5028     0.0103 C.2     
   2 C2             0.0021    -0.0041     0.0020 C.3     
   3 C3            -0.2550    -0.5098    -1.4189 C.3     
   4 O4             1.0236     2.1234     0.0037 O.2     
   5 N5            -1.1946     2.1607     0.0195 N.am    
   6 C6            -1.2145     3.6256     0.0275 C.3     
   7 C7            -2.6419     4.1085     0.0369 C.ar    
   8 C8            -3.2905     4.3234     1.2387 C.ar    
   9 C9            -4.5994     4.7667     1.2486 C.ar    
  10 C10           -5.2612     4.9957     0.0542 C.ar    
  11 C11           -4.6106     4.7802    -1.1489 C.ar    
  12 C12           -3.3000     4.3419    -1.1563 C.ar    
  13 F13           -6.5409     5.4287     0.0626 F       
  14 O14           -0.3515    -1.9355    -1.4069 O.3     
  15 C15           -0.5922    -2.5126    -2.6919 C.3     
  16 F16           -1.7975    -2.0216    -3.2052 F       
  17 F17            0.4544    -2.1769    -3.5574 F       
  18 N18            1.3109    -0.4772     0.4594 N.am    
  19 C19            2.4256    -0.1328    -0.2155 C.2     
  20 O20            2.3450     0.5689    -1.2014 O.2     
  21 C21            3.7720    -0.6195     0.2551 C.3     
  22 H22           -0.7738    -0.3816     0.6680 H       
  23 H23           -1.1871    -0.0857    -1.7924 H       
  24 H24            0.5674    -0.2067    -2.0668 H       
  25 H25           -2.0280     1.6644     0.0207 H       
  26 H26           -0.7014     3.9910     0.9171 H       
  27 H27           -0.7098     4.0007    -0.8628 H       
  28 H28           -2.7742     4.1443     2.1703 H       
  29 H29           -5.1060     4.9341     2.1876 H       
  30 H30           -5.1259     4.9584    -2.0812 H       
  31 H31           -2.7910     4.1776    -2.0945 H       
  32 H32           -0.6522    -3.5968    -2.5977 H       
  33 H33            1.3754    -1.0384     1.2480 H       
  34 H34            3.7867    -1.7094     0.2491 H       
  35 H35            4.5479    -0.2419    -0.4109 H       
  36 H36            3.9551    -0.2592     1.2674 H       
@<TRIPOS>BOND
   1    1    2 1
   2    1    4 2
   3    1    5 am
   4    2    3 1
   5    2   18 1
   6    2   22 1
   7    3   14 1
   8    3   23 1
   9    3   24 1
  10    5    6 1
  11    5   25 1
  12    6    7 1
  13    6   26 1
  14    6   27 1
  15    7    8 ar
  16    7   12 ar
  17    8    9 ar
  18    8   28 1
  19    9   10 ar
  20    9   29 1
  21   10   11 ar
  22   10   13 1
  23   11   12 ar
  24   11   30 1
  25   12   31 1
  26   14   15 1
  27   15   16 1
  28   15   17 1
  29   15   32 1
  30   18   19 am
  31   18   33 1
  32   19   20 2
  33   19   21 1
  34   21   34 1
  35   21   35 1
  36   21   36 1

#	End of record

