#	Name: ASD01028632
#	Creating user name:	WinNT
#	Creation time:	15. 06. 2019 18:57

#	Modifying user name:	WinNT
#	Modification time:	15. 06. 2019 18:57

#	Program:	/corina/corina34_cracker 3.40 0067  02.08.2006

@<TRIPOS>MOLECULE
ASD01028632
  44   48    0    0    0
SMALL
NO_CHARGES


@<TRIPOS>ATOM
   1 C1            -0.0164     1.3589     0.0095 C.2     
   2 N2             0.0021    -0.0041     0.0020 N.pl3   
   3 C3             1.1492     2.0644     0.0022 C.2     
   4 C4             2.3911     1.3836    -0.0134 C.2     
   5 C5             2.4121     0.0246    -0.0209 C.2     
   6 C6             1.1931    -0.6868    -0.0131 C.2     
   7 N7             0.8956    -1.9761    -0.0176 N.2     
   8 N8            -0.3827    -2.1220    -0.0063 N.2     
   9 C9            -0.9723    -0.9543     0.0062 C.2     
  10 C10           -4.3479    -0.9627    -1.5643 C.ar    
  11 C11           -3.0826    -1.3168    -1.2068 C.ar    
  12 C12           -2.3570    -2.2354    -1.9621 C.ar    
  13 C13           -2.8904    -2.8049    -3.0774 C.ar    
  14 C14           -4.1940    -2.4653    -3.4785 C.ar    
  15 C15           -4.9303    -1.5309    -2.7083 C.ar    
  16 N16           -4.7443    -3.0088    -4.5690 N.ar    
  17 C17           -5.9597    -2.6957    -4.9470 C.ar    
  18 C18           -6.7373    -1.7845    -4.2353 C.ar    
  19 C19           -6.2357    -1.1920    -3.1117 C.ar    
  20 C20            1.1175     3.5436     0.0100 C.2     
  21 C21           -2.4587    -0.7065     0.0218 C.3     
  22 F22            3.5888    -0.6390    -0.0353 F       
  23 C23            1.5684     4.3920     0.9963 C.2     
  24 C24            1.4021     5.7260     0.7150 C.2     
  25 N25            0.8537     6.0569    -0.4163 N.2     
  26 S26            0.4976     4.6233    -1.2516 S.3     
  27 C27            1.8446     6.7817     1.6952 C.3     
  28 F28           -2.7017     0.6712     0.0329 F       
  29 C29           -3.0686    -1.3421     1.2728 C.3     
  30 H30           -0.9608     1.8828     0.0168 H       
  31 H31            3.3161     1.9411    -0.0196 H       
  32 H32           -4.9021    -0.2525    -0.9685 H       
  33 H33           -1.3549    -2.4996    -1.6581 H       
  34 H34           -2.3140    -3.5148    -3.6521 H       
  35 H35           -6.3692    -3.1560    -5.8341 H       
  36 H36           -7.7354    -1.5465    -4.5722 H       
  37 H37           -6.8244    -0.4833    -2.5480 H       
  38 H38            2.0149     4.0383     1.9139 H       
  39 H39            2.8785     7.0585     1.4890 H       
  40 H40            1.2066     7.6599     1.5960 H       
  41 H41            1.7687     6.3902     2.7097 H       
  42 H42           -2.6174    -0.9007     2.1614 H       
  43 H43           -4.1437    -1.1629     1.2840 H       
  44 H44           -2.8793    -2.4155     1.2641 H       
@<TRIPOS>BOND
   1    1    2 1
   2    1    3 2
   3    1   30 1
   4    2    6 1
   5    2    9 1
   6    3    4 1
   7    3   20 1
   8    4    5 2
   9    4   31 1
  10    5    6 1
  11    5   22 1
  12    6    7 2
  13    7    8 1
  14    8    9 2
  15    9   21 1
  16   10   11 ar
  17   10   15 ar
  18   10   32 1
  19   11   12 ar
  20   11   21 1
  21   12   13 ar
  22   12   33 1
  23   13   14 ar
  24   13   34 1
  25   14   15 ar
  26   14   16 ar
  27   15   19 ar
  28   16   17 ar
  29   17   18 ar
  30   17   35 1
  31   18   19 ar
  32   18   36 1
  33   19   37 1
  34   20   23 2
  35   20   26 1
  36   21   28 1
  37   21   29 1
  38   23   24 1
  39   23   38 1
  40   24   25 2
  41   24   27 1
  42   25   26 1
  43   27   39 1
  44   27   40 1
  45   27   41 1
  46   29   42 1
  47   29   43 1
  48   29   44 1

#	End of record

