#	Name: ASD03091542
#	Creating user name:	WinNT
#	Creation time:	15. 06. 2019 20:30

#	Modifying user name:	WinNT
#	Modification time:	15. 06. 2019 20:30

#	Program:	/corina/corina34_cracker 3.40 0067  02.08.2006

@<TRIPOS>MOLECULE
ASD03091542
  46   47    0    0    0
SMALL
NO_CHARGES


@<TRIPOS>ATOM
   1 C1            -0.0167     1.3801     0.0096 C.ar    
   2 C2             0.0021    -0.0041     0.0020 C.ar    
   3 C3             1.2102    -0.6832    -0.0127 C.ar    
   4 C4             2.4156     0.0227    -0.0204 C.ar    
   5 C5             2.4115     1.4002    -0.0130 C.ar    
   6 C6             1.1931     2.0954     0.0019 C.ar    
   7 C7             1.1818     3.5600     0.0094 C.2     
   8 O8             0.1263     4.1585     0.0223 O.2     
   9 C9             2.4810     4.3236     0.0011 C.3     
  10 C10            2.1898     5.8256     0.0114 C.3     
  11 C11            3.4890     6.5892     0.0031 C.ar    
  12 C12            4.1265     6.8618    -1.1988 C.ar    
  13 C13            4.0432     7.0233     1.1915 C.ar    
  14 C14            5.2349     7.7249     1.1844 C.ar    
  15 C15            5.8745     7.9936    -0.0113 C.ar    
  16 C16            5.3220     7.5653    -1.2031 C.ar    
  17 O17           -1.1996     2.0443     0.0189 O.3     
  18 O18            3.5970    -0.6521    -0.0349 O.3     
  19 O19            3.5808     6.4399    -2.3697 O.3     
  20 C20           -2.3887     1.2517     0.0202 C.3     
  21 C21            4.7918     0.1317    -0.0421 C.3     
  22 C22            4.2920     6.7562    -3.5681 C.3     
  23 O23            1.2222    -2.0406    -0.0192 O.3     
  24 C24           -0.0452    -2.7006    -0.0102 C.3     
  25 H25           -0.9264    -0.5558     0.0079 H       
  26 H26            3.3446     1.9441    -0.0183 H       
  27 H27            3.0628     4.0603     0.8844 H       
  28 H28            3.0462     4.0692    -0.8955 H       
  29 H29            1.6079     6.0890    -0.8719 H       
  30 H30            1.6246     6.0800     0.9080 H       
  31 H31            3.5453     6.8149     2.1269 H       
  32 H32            5.6664     8.0637     2.1147 H       
  33 H33            6.8049     8.5420    -0.0142 H       
  34 H34            5.8203     7.7784    -2.1373 H       
  35 H35           -3.2610     1.9053     0.0279 H       
  36 H36           -2.4103     0.6275    -0.8731 H       
  37 H37           -2.4018     0.6178     0.9068 H       
  38 H38            5.6592    -0.5283    -0.0535 H       
  39 H39            4.8055     0.7651    -0.9291 H       
  40 H40            4.8221     0.7561     0.8508 H       
  41 H41            4.3842     7.8383    -3.6611 H       
  42 H42            5.2853     6.3089    -3.5299 H       
  43 H43            3.7491     6.3626    -4.4274 H       
  44 H44           -0.5962    -2.4169     0.8864 H       
  45 H45           -0.6132    -2.4085    -0.8935 H       
  46 H46            0.1072    -3.7799    -0.0168 H       
@<TRIPOS>BOND
   1    1    2 ar
   2    1    6 ar
   3    1   17 1
   4    2    3 ar
   5    2   25 1
   6    3    4 ar
   7    3   23 1
   8    4    5 ar
   9    4   18 1
  10    5    6 ar
  11    5   26 1
  12    6    7 1
  13    7    8 2
  14    7    9 1
  15    9   10 1
  16    9   27 1
  17    9   28 1
  18   10   11 1
  19   10   29 1
  20   10   30 1
  21   11   13 ar
  22   11   12 ar
  23   12   16 ar
  24   12   19 1
  25   13   14 ar
  26   13   31 1
  27   14   15 ar
  28   14   32 1
  29   15   16 ar
  30   15   33 1
  31   16   34 1
  32   17   20 1
  33   18   21 1
  34   19   22 1
  35   20   35 1
  36   20   36 1
  37   20   37 1
  38   21   38 1
  39   21   39 1
  40   21   40 1
  41   22   41 1
  42   22   42 1
  43   22   43 1
  44   23   24 1
  45   24   44 1
  46   24   45 1
  47   24   46 1

#	End of record

