#	Name: ASD00170525
#	Creating user name:	WinNT
#	Creation time:	15. 06. 2019 18:32

#	Modifying user name:	WinNT
#	Modification time:	15. 06. 2019 18:32

#	Program:	/corina/corina34_cracker 3.40 0067  02.08.2006

@<TRIPOS>MOLECULE
ASD00170525
  48   51    0    0    0
SMALL
NO_CHARGES


@<TRIPOS>ATOM
   1 C1             0.5628     0.2564    -0.9141 C.ar    
   2 C2             0.8858    -1.0893    -0.8591 C.ar    
   3 C3             2.1879    -1.4855    -0.6028 C.ar    
   4 C4             3.1721    -0.5412    -0.4001 C.ar    
   5 C5             2.8531     0.8185    -0.4541 C.ar    
   6 C6             1.5371     1.2113    -0.7137 C.ar    
   7 Cl7           -0.3472    -2.2849    -1.1120 Cl      
   8 C8             3.8994     1.8332    -0.2385 C.2     
   9 C9             4.3521     2.7097    -1.1474 C.2     
  10 C10            4.6522     2.0791     1.0484 C.3     
  11 C11            5.6045     3.2150     0.7482 C.2     
  12 C12            5.3949     3.5625    -0.5694 C.2     
  13 C13            3.8571     2.8044    -2.5676 C.3     
  14 C14            4.7548     1.9949    -3.4676 C.ar    
  15 C15            4.4332     0.6840    -3.7661 C.ar    
  16 C16            5.8965     2.5653    -3.9988 C.ar    
  17 C17            6.7200     1.8235    -4.8246 C.ar    
  18 C18            6.4017     0.5097    -5.1192 C.ar    
  19 C19            5.2564    -0.0591    -4.5910 C.ar    
  20 Cl20           7.4355    -0.4226    -6.1563 Cl      
  21 C21            6.1083     4.6246    -1.2850 C.2     
  22 O22            7.2982     4.5099    -1.5160 O.2     
  23 C23            5.3830     5.8347    -1.7260 C.ar    
  24 N24            6.4903     3.7846     1.6098 N.pl3   
  25 C25            6.0300     6.7936    -2.5083 C.ar    
  26 C26            4.0465     6.0208    -1.3669 C.ar    
  27 C27            3.3751     7.1514    -1.7818 C.ar    
  28 C28            4.0236     8.1014    -2.5537 C.ar    
  29 C29            5.3480     7.9201    -2.9171 C.ar    
  30 Cl30           3.1713     9.5217    -3.0731 Cl      
  31 H31           -0.4537     0.5585    -1.1188 H       
  32 H32            2.4330    -2.5366    -0.5613 H       
  33 H33            4.1869    -0.8516    -0.1996 H       
  34 H34            1.2840     2.2603    -0.7572 H       
  35 H35            3.9609     2.3660     1.8408 H       
  36 H36            5.2081     1.1870     1.3365 H       
  37 H37            2.8401     2.4163    -2.6246 H       
  38 H38            3.8667     3.8465    -2.8870 H       
  39 H39            3.5388     0.2403    -3.3544 H       
  40 H40            6.1449     3.5909    -3.7687 H       
  41 H41            7.6115     2.2695    -5.2401 H       
  42 H42            5.0076    -1.0847    -4.8203 H       
  43 H43            6.5547     3.4625     2.5225 H       
  44 H44            7.0575     4.5127     1.3113 H       
  45 H45            7.0625     6.6533    -2.7923 H       
  46 H46            3.5396     5.2805    -0.7658 H       
  47 H47            2.3413     7.2965    -1.5047 H       
  48 H48            5.8483     8.6642    -3.5190 H       
@<TRIPOS>BOND
   1    1    2 ar
   2    1    6 ar
   3    1   31 1
   4    2    3 ar
   5    2    7 1
   6    3    4 ar
   7    3   32 1
   8    4    5 ar
   9    4   33 1
  10    5    6 ar
  11    5    8 1
  12    6   34 1
  13    8    9 2
  14    8   10 1
  15    9   13 1
  16    9   12 1
  17   10   11 1
  18   10   35 1
  19   10   36 1
  20   11   12 2
  21   11   24 1
  22   12   21 1
  23   13   14 1
  24   13   37 1
  25   13   38 1
  26   14   15 ar
  27   14   16 ar
  28   15   19 ar
  29   15   39 1
  30   16   17 ar
  31   16   40 1
  32   17   18 ar
  33   17   41 1
  34   18   19 ar
  35   18   20 1
  36   19   42 1
  37   21   22 2
  38   21   23 1
  39   23   25 ar
  40   23   26 ar
  41   24   43 1
  42   24   44 1
  43   25   29 ar
  44   25   45 1
  45   26   27 ar
  46   26   46 1
  47   27   28 ar
  48   27   47 1
  49   28   29 ar
  50   28   30 1
  51   29   48 1

#	End of record

