#	Name: ASD03130016
#	Creating user name:	WinNT
#	Creation time:	15. 06. 2019 20:33

#	Modifying user name:	WinNT
#	Modification time:	15. 06. 2019 20:33

#	Program:	/corina/corina34_cracker 3.40 0067  02.08.2006

@<TRIPOS>MOLECULE
ASD03130016
  75   78    0    0    0
SMALL
NO_CHARGES


@<TRIPOS>ATOM
   1 C1            -0.3439     1.6754    -0.3522 C.3     
   2 C2            -0.4310     0.1513    -0.4528 C.3     
   3 C3             0.1897    -0.3147    -1.7709 C.3     
   4 C4             1.6817     0.0315    -1.7825 C.3     
   5 C5             1.8304     1.5215    -1.5236 C.2     
   6 C6             1.1273     2.0999    -0.3318 C.3     
   7 C7             1.2308     3.6137    -0.2485 C.3     
   8 C8             2.5611     2.2189    -2.3433 C.2     
   9 C9             2.7743     3.6970    -2.1939 C.3     
  10 C10            2.6138     4.0843    -0.7196 C.3     
  11 C11            1.0972     5.5939     1.3300 C.3     
  12 C12            0.9287     4.0744     1.1747 C.3     
  13 C13            2.5202     5.9281     0.9246 C.3     
  14 C14            2.9179     7.3990     0.9963 C.3     
  15 C15            2.6545     5.5960    -0.5856 C.3     
  16 C16            3.9912     6.2606    -0.9326 C.3     
  17 C17            3.9161     7.6111    -0.1692 C.3     
  18 C18            3.5943     7.7005     2.3351 C.3     
  19 C19            4.1147     9.1393     2.3309 C.3     
  20 C20            4.8990     9.4017     3.6181 C.3     
  21 C21            5.4194    10.8405     3.6140 C.3     
  22 C22            6.2037    11.1028     4.9012 C.3     
  23 C23            6.8287    12.4981     4.8422 C.3     
  24 C24            5.2581    11.0179     6.1009 C.3     
  25 H25            0.4778     4.0459    -0.9076 H       
  26 H26            1.8460     6.0485    -1.1599 H       
  27 H27            2.0419     8.0339     0.8635 H       
  28 C28            2.5813     7.5279     3.4686 C.3     
  29 O29            0.0278    -1.7286    -1.9002 O.3     
  30 C30            1.7758     1.5076     0.9210 C.3     
  31 H31            3.3955     3.6178    -0.1201 H       
  32 C32            3.5035     5.0841     1.7382 C.3     
  33 H33           -0.3059     0.1854    -2.6030 H       
  34 O34            2.3544    -0.7043    -0.7587 O.3     
  35 H35           -0.8403     2.1255    -1.2119 H       
  36 H36           -0.8310     2.0077     0.5645 H       
  37 H37            0.1080    -0.2986     0.3809 H       
  38 H38           -1.4763    -0.1554    -0.4158 H       
  39 H39            2.1085    -0.2166    -2.7543 H       
  40 H40            3.0365     1.7108    -3.1693 H       
  41 H41            3.7780     3.9559    -2.5311 H       
  42 H42            2.0387     4.2333    -2.7934 H       
  43 H43            0.3937     6.1141     0.6799 H       
  44 H44            0.9290     5.8823     2.3675 H       
  45 H45           -0.0967     3.8032     1.4257 H       
  46 H46            1.6068     3.5697     1.8629 H       
  47 H47            4.8259     5.6595    -0.5719 H       
  48 H48            4.0711     6.4285    -2.0066 H       
  49 H49            3.5548     8.3965    -0.8330 H       
  50 H50            4.8985     7.8744     0.2229 H       
  51 H51            4.4272     7.0134     2.4843 H       
  52 H52            4.7679     9.2869     1.4709 H       
  53 H53            3.2734     9.8298     2.2709 H       
  54 H54            4.2458     9.2541     4.4781 H       
  55 H55            5.7403     8.7112     3.6781 H       
  56 H56            6.0726    10.9881     2.7540 H       
  57 H57            4.5781    11.5309     3.5540 H       
  58 H58            6.9910    10.3562     5.0055 H       
  59 H59            6.0414    13.2448     4.7378 H       
  60 H60            7.3875    12.6851     5.7592 H       
  61 H61            7.5024    12.5586     3.9874 H       
  62 H62            4.4708    11.7645     5.9966 H       
  63 H63            4.8128    10.0239     6.1430 H       
  64 H64            5.8168    11.2049     7.0179 H       
  65 H65            1.7895     8.2697     3.3645 H       
  66 H66            2.1506     6.5277     3.4218 H       
  67 H67            3.0822     7.6632     4.4273 H       
  68 H68           -0.8941    -2.0205    -1.9001 H       
  69 H69            1.6991     0.4207     0.8906 H       
  70 H70            2.8261     1.7968     0.9577 H       
  71 H71            1.2643     1.8833     1.8072 H       
  72 H72            3.2726     4.0273     1.6042 H       
  73 H73            4.5198     5.2802     1.3965 H       
  74 H74            3.4185     5.3437     2.7934 H       
  75 H75            2.2854    -1.6641    -0.8542 H       
@<TRIPOS>BOND
   1    1    2 1
   2    1    6 1
   3    1   35 1
   4    1   36 1
   5    2    3 1
   6    2   37 1
   7    2   38 1
   8    3   29 1
   9    3   33 1
  10    3    4 1
  11    4    5 1
  12    4   34 1
  13    4   39 1
  14    5    8 2
  15    5    6 1
  16    6    7 1
  17    6   30 1
  18    7   10 1
  19    7   25 1
  20    7   12 1
  21    8    9 1
  22    8   40 1
  23    9   10 1
  24    9   41 1
  25    9   42 1
  26   10   15 1
  27   10   31 1
  28   11   12 1
  29   11   13 1
  30   11   43 1
  31   11   44 1
  32   12   45 1
  33   12   46 1
  34   13   14 1
  35   13   32 1
  36   13   15 1
  37   14   17 1
  38   14   18 1
  39   14   27 1
  40   15   16 1
  41   15   26 1
  42   16   17 1
  43   16   47 1
  44   16   48 1
  45   17   49 1
  46   17   50 1
  47   18   19 1
  48   18   28 1
  49   18   51 1
  50   19   20 1
  51   19   52 1
  52   19   53 1
  53   20   21 1
  54   20   54 1
  55   20   55 1
  56   21   22 1
  57   21   56 1
  58   21   57 1
  59   22   23 1
  60   22   24 1
  61   22   58 1
  62   23   59 1
  63   23   60 1
  64   23   61 1
  65   24   62 1
  66   24   63 1
  67   24   64 1
  68   28   65 1
  69   28   66 1
  70   28   67 1
  71   29   68 1
  72   30   69 1
  73   30   70 1
  74   30   71 1
  75   32   72 1
  76   32   73 1
  77   32   74 1
  78   34   75 1

#	End of record

