#	Name: ASD00431310
#	Creating user name:	WinNT
#	Creation time:	15. 06. 2019 18:35

#	Modifying user name:	WinNT
#	Modification time:	15. 06. 2019 18:35

#	Program:	/corina/corina34_cracker 3.40 0067  02.08.2006

@<TRIPOS>MOLECULE
ASD00431310
  36   37    0    0    0
SMALL
NO_CHARGES


@<TRIPOS>ATOM
   1 C1            -0.0866     1.2090     0.5763 C.2     
   2 N2            -0.0000    -0.0088     0.0053 N.am    
   3 O3             0.8947     1.7115     1.0875 O.2     
   4 O4            -1.2590     1.8713     0.5753 O.3     
   5 C5             1.2439    -0.6448    -0.1036 C.ar    
   6 C6             1.3302    -2.0258     0.0116 C.ar    
   7 C7             2.5562    -2.6520    -0.0958 C.ar    
   8 C8             3.7017    -1.9014    -0.3182 C.ar    
   9 C9             3.6161    -0.5213    -0.4329 C.ar    
  10 C10            2.3897     0.1053    -0.3323 C.ar    
  11 O11            4.9086    -2.5184    -0.4233 O.3     
  12 S12            6.5079    -4.3001    -1.7203 S.3     
  13 C13            5.1118    -3.3430    -1.4796 C.2     
  14 N14            4.2764    -3.5208    -2.4534 N.2     
  15 C15            4.6365    -4.3641    -3.4037 C.2     
  16 C16            5.8333    -4.9248    -3.2231 C.2     
  17 C17           -1.2785     3.1779     1.2083 C.3     
  18 C18           -0.2840     4.1016     0.5021 C.3     
  19 C19           -2.6851     3.7717     1.1091 C.3     
  20 C20           -0.8870     3.0373     2.6806 C.3     
  21 H21           -0.7988    -0.4449    -0.3303 H       
  22 H22            0.4387    -2.6100     0.1854 H       
  23 H23            2.6234    -3.7261    -0.0062 H       
  24 H24            4.5081     0.0625    -0.6057 H       
  25 H25            2.3225     1.1790    -0.4268 H       
  26 H26            4.0124    -4.5823    -4.2577 H       
  27 H27            6.3062    -5.6370    -3.8831 H       
  28 H28           -0.5629     4.2018    -0.5469 H       
  29 H29           -0.2987     5.0825     0.9772 H       
  30 H30            0.7181     3.6786     0.5728 H       
  31 H31           -3.3936     3.1137     1.6122 H       
  32 H32           -2.6997     4.7526     1.5842 H       
  33 H33           -2.9640     3.8719     0.0601 H       
  34 H34            0.1151     2.6143     2.7513 H       
  35 H35           -0.9016     4.0182     3.1558 H       
  36 H36           -1.5955     2.3792     3.1837 H       
@<TRIPOS>BOND
   1    1    2 am
   2    1    3 2
   3    1    4 1
   4    2    5 1
   5    2   21 1
   6    4   17 1
   7    5    6 ar
   8    5   10 ar
   9    6    7 ar
  10    6   22 1
  11    7    8 ar
  12    7   23 1
  13    8    9 ar
  14    8   11 1
  15    9   10 ar
  16    9   24 1
  17   10   25 1
  18   11   13 1
  19   12   13 1
  20   12   16 1
  21   13   14 2
  22   14   15 1
  23   15   16 2
  24   15   26 1
  25   16   27 1
  26   17   18 1
  27   17   20 1
  28   17   19 1
  29   18   28 1
  30   18   29 1
  31   18   30 1
  32   19   31 1
  33   19   32 1
  34   19   33 1
  35   20   34 1
  36   20   35 1
  37   20   36 1

#	End of record

