#	Name: ASD07301696
#	Creating user name:	WinNT
#	Creation time:	15. 06. 2019 21:11

#	Modifying user name:	WinNT
#	Modification time:	15. 06. 2019 21:11

#	Program:	/corina/corina34_cracker 3.40 0067  02.08.2006

@<TRIPOS>MOLECULE
ASD07301696
  51   55    0    0    0
SMALL
NO_CHARGES


@<TRIPOS>ATOM
   1 C1            -0.0582     1.4001     0.0469 C.2     
   2 C2            -0.0711    -0.0565    -0.1643 C.2     
   3 C3             1.1774    -0.7237    -0.1456 C.2     
   4 C4             2.2910     0.0222     0.0644 C.2     
   5 N5             2.2053     1.3590     0.2492 N.pl3   
   6 N6             1.0960     2.0014     0.2397 N.2     
   7 O7            -1.1152    -0.6642    -0.3475 O.2     
   8 N8            -2.2418     2.2047    -0.9691 N.pl3   
   9 N9            -3.2769     3.0593    -0.5696 N.2     
  10 C10           -3.0000     3.5280     0.6211 C.2     
  11 C11           -1.7793     2.9976     1.0384 C.2     
  12 C12           -1.3167     2.1731     0.0364 C.2     
  13 C13           -2.1704     1.5035    -2.1794 C.ar    
  14 C14           -3.3021     0.8828    -2.6917 C.ar    
  15 C15           -3.2284     0.1920    -3.8854 C.ar    
  16 C16           -2.0294     0.1181    -4.5703 C.ar    
  17 C17           -0.9007     0.7351    -4.0628 C.ar    
  18 C18           -0.9692     1.4322    -2.8725 C.ar    
  19 C19            3.3866     2.0771     0.4619 C.ar    
  20 C20            3.5197     2.8781     1.5899 C.ar    
  21 C21            4.6852     3.5858     1.7996 C.ar    
  22 C22            5.7255     3.4982     0.8832 C.ar    
  23 C23            5.5930     2.6980    -0.2440 C.ar    
  24 C24            4.4296     1.9853    -0.4515 C.ar    
  25 N25            6.9092     4.2182     1.0961 N.pl3   
  26 N26            7.1783     5.0594     2.1835 N.2     
  27 C27            8.3820     5.5508     2.0326 C.2     
  28 C28            8.9183     5.0395     0.8458 C.2     
  29 C29            7.9959     4.2191     0.2913 C.2     
  30 C30            2.3907     2.9739     2.5836 C.3     
  31 C31            2.4853     1.8136     3.5764 C.3     
  32 H32            1.2412    -1.7916    -0.2933 H       
  33 H33            3.2583    -0.4578     0.0846 H       
  34 H34           -3.6152     4.2122     1.1866 H       
  35 H35           -1.2855     3.1978     1.9778 H       
  36 H36           -4.2387     0.9398    -2.1571 H       
  37 H37           -4.1081    -0.2913    -4.2842 H       
  38 H38           -1.9743    -0.4230    -5.5034 H       
  39 H39            0.0344     0.6753    -4.5999 H       
  40 H40           -0.0884     1.9177    -2.4789 H       
  41 H41            4.7886     4.2082     2.6761 H       
  42 H42            6.4019     2.6305    -0.9564 H       
  43 H43            4.3282     1.3595    -1.3259 H       
  44 H44            8.8760     6.2339     2.7077 H       
  45 H45            9.8970     5.2580     0.4449 H       
  46 H46            8.1068     3.6661    -0.6297 H       
  47 H47            2.4597     3.9192     3.1218 H       
  48 H48            1.4378     2.9244     2.0567 H       
  49 H49            3.4383     1.8630     4.1033 H       
  50 H50            1.6688     1.8829     4.2951 H       
  51 H51            2.4164     0.8683     3.0381 H       
@<TRIPOS>BOND
   1    1    2 1
   2    1    6 2
   3    1   12 1
   4    2    3 1
   5    2    7 2
   6    3    4 2
   7    3   32 1
   8    4    5 1
   9    4   33 1
  10    5    6 1
  11    5   19 1
  12    8    9 1
  13    8   12 1
  14    8   13 1
  15    9   10 2
  16   10   11 1
  17   10   34 1
  18   11   12 2
  19   11   35 1
  20   13   14 ar
  21   13   18 ar
  22   14   15 ar
  23   14   36 1
  24   15   16 ar
  25   15   37 1
  26   16   17 ar
  27   16   38 1
  28   17   18 ar
  29   17   39 1
  30   18   40 1
  31   19   20 ar
  32   19   24 ar
  33   20   21 ar
  34   20   30 1
  35   21   22 ar
  36   21   41 1
  37   22   23 ar
  38   22   25 1
  39   23   24 ar
  40   23   42 1
  41   24   43 1
  42   25   26 1
  43   25   29 1
  44   26   27 2
  45   27   28 1
  46   27   44 1
  47   28   29 2
  48   28   45 1
  49   29   46 1
  50   30   31 1
  51   30   47 1
  52   30   48 1
  53   31   49 1
  54   31   50 1
  55   31   51 1

#	End of record

