#	Name: ASD00431168
#	Creating user name:	WinNT
#	Creation time:	15. 06. 2019 18:35

#	Modifying user name:	WinNT
#	Modification time:	15. 06. 2019 18:35

#	Program:	/corina/corina34_cracker 3.40 0067  02.08.2006

@<TRIPOS>MOLECULE
ASD00431168
  44   46    0    0    0
SMALL
NO_CHARGES


@<TRIPOS>ATOM
   1 C1             0.0548     1.5091    -0.3116 C.2     
   2 N2             0.0599     0.1615    -0.2891 N.am    
   3 O3             1.1118     2.1245    -0.3216 O.co2   
   4 O4            -1.0067     2.1165    -0.3271 O.co2   
   5 C5             1.3313    -0.5661    -0.2766 C.3     
   6 C6             1.8360    -0.6863     1.1628 C.3     
   7 O7             0.1236    -2.7802    -0.5744 O.3     
   8 N8             0.2504    -3.8084    -1.2050 N.2     
   9 C9             1.3295    -3.7499    -1.9472 C.2     
  10 N10            1.9015    -2.5431    -1.7233 N.2     
  11 C11            1.1277    -1.9431    -0.8542 C.2     
  12 S12            3.2807    -4.7121    -3.8476 S.3     
  13 C13            2.9769    -6.2813    -4.4540 C.2     
  14 N14            1.8916    -6.7638    -3.9312 N.2     
  15 C15            1.2502    -6.0024    -3.0728 C.2     
  16 C16            1.8275    -4.8018    -2.8555 C.2     
  17 O17            3.7573    -6.9284    -5.3518 O.3     
  18 C18            3.4417    -8.2140    -5.6623 C.ar    
  19 C19            2.2562    -8.4965    -6.3250 C.ar    
  20 C20            1.9356    -9.8024    -6.6404 C.ar    
  21 C21            2.7989   -10.8315    -6.2940 C.ar    
  22 C22            3.9841   -10.5491    -5.6310 C.ar    
  23 C23            4.3079    -9.2426    -5.3215 C.ar    
  24 O24            2.4830   -12.1171    -6.6041 O.3     
  25 C25            1.1885   -12.3506    -7.1624 C.3     
  26 C26            1.2819   -12.3386    -8.6895 C.3     
  27 C27            0.6688   -13.7113    -6.6940 C.3     
  28 H28           -0.7784    -0.3265    -0.2812 H       
  29 H29            2.0650    -0.0259    -0.8749 H       
  30 H30            2.7820    -1.2277     1.1720 H       
  31 H31            1.9832     0.3096     1.5805 H       
  32 H32            1.1023    -1.2265     1.7611 H       
  33 H33            0.3382    -6.3110    -2.5834 H       
  34 H34            1.5837    -7.6954    -6.5940 H       
  35 H35            1.0127   -10.0224    -7.1563 H       
  36 H36            4.6558   -11.3505    -5.3608 H       
  37 H37            5.2329    -9.0223    -4.8095 H       
  38 H38            0.5046   -11.5678    -6.8341 H       
  39 H39            0.2945   -12.5166    -9.1154 H       
  40 H40            1.6521   -11.3692    -9.0233 H       
  41 H41            1.9657   -13.1213    -9.0179 H       
  42 H42            0.6023   -13.7198    -5.6060 H       
  43 H43           -0.3186   -13.8893    -7.1198 H       
  44 H44            1.3527   -14.4940    -7.0223 H       
@<TRIPOS>BOND
   1    1    2 am
   2    1    3 ar
   3    1    4 ar
   4    2    5 1
   5    2   28 1
   6    5    6 1
   7    5   11 1
   8    5   29 1
   9    6   30 1
  10    6   31 1
  11    6   32 1
  12    7    8 1
  13    7   11 1
  14    8    9 2
  15    9   10 1
  16    9   16 1
  17   10   11 2
  18   12   13 1
  19   12   16 1
  20   13   14 2
  21   13   17 1
  22   14   15 1
  23   15   16 2
  24   15   33 1
  25   17   18 1
  26   18   19 ar
  27   18   23 ar
  28   19   20 ar
  29   19   34 1
  30   20   21 ar
  31   20   35 1
  32   21   22 ar
  33   21   24 1
  34   22   23 ar
  35   22   36 1
  36   23   37 1
  37   24   25 1
  38   25   26 1
  39   25   27 1
  40   25   38 1
  41   26   39 1
  42   26   40 1
  43   26   41 1
  44   27   42 1
  45   27   43 1
  46   27   44 1

#	End of record

