#	Name: ASD01000041
#	Creating user name:	WinNT
#	Creation time:	15. 06. 2019 18:54

#	Modifying user name:	WinNT
#	Modification time:	15. 06. 2019 18:54

#	Program:	/corina/corina34_cracker 3.40 0067  02.08.2006

@<TRIPOS>MOLECULE
ASD01000041
  33   35    0    0    0
SMALL
NO_CHARGES


@<TRIPOS>ATOM
   1 C1            -0.1778     1.4109     0.2470 C.3     
   2 C2             4.0202    -2.3487     1.6521 C.ar    
   3 C3             2.8559    -1.9015     1.0452 C.ar    
   4 C4             2.2440    -2.6716     0.0749 C.ar    
   5 C5             2.7912    -3.8882    -0.2908 C.ar    
   6 C6             3.9521    -4.3366     0.3140 C.ar    
   7 C7             4.5701    -3.5672     1.2804 C.ar    
   8 C8             0.9793    -2.1859    -0.5852 C.3     
   9 N9            -0.1539    -2.9099     0.0158 N.am    
  10 C10            0.9532    -0.6742    -0.4903 C.2     
  11 C11           -0.0980    -0.0911     0.1298 C.2     
  12 N12           -1.1010    -0.8544     0.6568 N.am    
  13 C13           -1.1296    -2.1903     0.6043 C.2     
  14 C14            2.0015     0.0746    -1.0361 C.2     
  15 S15           -2.4532    -3.0159     1.3096 S.2     
  16 O16            2.9193    -0.4939    -1.5936 O.2     
  17 O17            4.6239    -1.5925     2.6065 O.3     
  18 Br18           1.9513    -4.9403    -1.6187 Br      
  19 C19            2.0053     1.5784    -0.9393 C.3     
  20 C20            1.2343     1.9963     0.3172 C.3     
  21 H21           -0.6957     1.8157    -0.6225 H       
  22 H22           -0.7259     1.6757     1.1512 H       
  23 H23            2.4277    -0.9521     1.3312 H       
  24 H24            4.3774    -5.2871     0.0276 H       
  25 H25            5.4764    -3.9173     1.7519 H       
  26 H26            1.0291    -2.4553    -1.6402 H       
  27 H27           -0.1968    -3.8786    -0.0113 H       
  28 H28           -1.8368    -0.3998     1.0960 H       
  29 H29            4.3191    -1.7769     3.5055 H       
  30 H30            3.0324     1.9376    -0.8749 H       
  31 H31            1.5229     2.0023    -1.8200 H       
  32 H32            1.1769     3.0838     0.3658 H       
  33 H33            1.7441     1.6155     1.2022 H       
@<TRIPOS>BOND
   1    1   11 1
   2    1   20 1
   3    1   21 1
   4    1   22 1
   5    2    3 ar
   6    2   17 1
   7    2    7 ar
   8    3    4 ar
   9    3   23 1
  10    4    5 ar
  11    4    8 1
  12    5    6 ar
  13    5   18 1
  14    6    7 ar
  15    6   24 1
  16    7   25 1
  17    8    9 1
  18    8   10 1
  19    8   26 1
  20    9   13 am
  21    9   27 1
  22   10   11 2
  23   10   14 1
  24   11   12 1
  25   12   13 am
  26   12   28 1
  27   13   15 2
  28   14   16 2
  29   14   19 1
  30   17   29 1
  31   19   20 1
  32   19   30 1
  33   19   31 1
  34   20   32 1
  35   20   33 1

#	End of record

