#	Name: ASD07301336
#	Creating user name:	WinNT
#	Creation time:	15. 06. 2019 21:11

#	Modifying user name:	WinNT
#	Modification time:	15. 06. 2019 21:11

#	Program:	/corina/corina34_cracker 3.40 0067  02.08.2006

@<TRIPOS>MOLECULE
ASD07301336
  27   27    0    0    0
SMALL
NO_CHARGES


@<TRIPOS>ATOM
   1 C1            -0.1413     1.5013     0.0177 C.3     
   2 C2            -0.1146    -0.0054     0.0086 C.2     
   3 C3             0.0227    -0.7425     1.2656 C.2     
   4 C4             0.0486    -2.2059     1.2568 C.2     
   5 C5             1.3668    -2.9360     1.2354 C.3     
   6 O6            -0.2070    -0.6076    -1.0410 O.2     
   7 O7            -0.9914    -2.8313     1.2667 O.2     
   8 N8             0.1234    -0.0857     2.4105 N.2     
   9 N9             0.1405    -0.7330     3.5261 N.pl3   
  10 C10            0.1399    -0.0382     4.7357 C.ar    
  11 C11            0.1583    -0.7345     5.9402 C.ar    
  12 C12            0.1576    -0.0422     7.1359 C.ar    
  13 C13            0.1385     1.3408     7.1359 C.ar    
  14 C14            0.1201     2.0358     5.9405 C.ar    
  15 C15            0.1265     1.3514     4.7409 C.ar    
  16 Cl16           0.1817    -2.4704     5.9407 Cl      
  17 H17            0.8748     1.8833    -0.0808 H       
  18 H18           -0.7463     1.8590    -0.8154 H       
  19 H19           -0.5718     1.8514     0.9559 H       
  20 H20            2.1794    -2.2160     1.1395 H       
  21 H21            1.4862    -3.4974     2.1620 H       
  22 H22            1.3880    -3.6228     0.3892 H       
  23 H23            0.1538    -1.7029     3.5240 H       
  24 H24            0.1715    -0.5815     8.0715 H       
  25 H25            0.1376     1.8794     8.0720 H       
  26 H26            0.1052     3.1157     5.9449 H       
  27 H27            0.1167     1.8954     3.8080 H       
@<TRIPOS>BOND
   1    1    2 1
   2    1   17 1
   3    1   18 1
   4    1   19 1
   5    2    3 1
   6    2    6 2
   7    3    4 1
   8    3    8 2
   9    4    5 1
  10    4    7 2
  11    5   20 1
  12    5   21 1
  13    5   22 1
  14    8    9 1
  15    9   10 1
  16    9   23 1
  17   10   11 ar
  18   10   15 ar
  19   11   12 ar
  20   11   16 1
  21   12   13 ar
  22   12   24 1
  23   13   14 ar
  24   13   25 1
  25   14   15 ar
  26   14   26 1
  27   15   27 1

#	End of record

