#	Name: ASD01814706
#	Creating user name:	WinNT
#	Creation time:	15. 06. 2019 19:32

#	Modifying user name:	WinNT
#	Modification time:	15. 06. 2019 19:32

#	Program:	/corina/corina34_cracker 3.40 0067  02.08.2006

@<TRIPOS>MOLECULE
ASD01814706
  58   62    0    0    0
SMALL
NO_CHARGES


@<TRIPOS>ATOM
   1 C1            -0.0178     1.4648     0.0101 C.3     
   2 N2             0.0021    -0.0041     0.0020 N.3     
   3 C3             0.4358    -0.5154    -1.2985 C.3     
   4 N4             0.5143    -1.9765    -1.2955 N.am    
   5 C5             0.0811    -2.7397    -2.4686 C.3     
   6 H6            -0.2668    -2.0532    -3.2405 H       
   7 C7             1.2561    -3.5587    -3.0066 C.3     
   8 C8             0.8037    -4.3558    -4.2317 C.3     
   9 C9            -0.3353    -5.2973    -3.8355 C.3     
  10 C10           -1.5103    -4.4783    -3.2975 C.3     
  11 C11           -1.0579    -3.6812    -2.0724 C.3     
  12 H12           -0.7099    -4.3677    -1.3005 H       
  13 O13           -2.1553    -2.9163    -1.5699 O.3     
  14 C14            0.9895    -2.6188    -0.2039 C.2     
  15 O15            1.1918    -3.8179    -0.2155 O.2     
  16 C16            1.2538    -1.8092     1.0019 C.ar    
  17 C17            1.9810    -2.3221     2.0726 C.ar    
  18 C18            2.2306    -1.5247     3.1687 C.ar    
  19 C19            3.0158    -2.0769     4.3304 C.3     
  20 C20            2.0650    -2.6002     5.3759 C.ar    
  21 C21            1.6005    -1.7668     6.3823 C.ar    
  22 C22            0.7270    -2.2906     7.3224 C.ar    
  23 C23            0.3501    -3.6183     7.2261 C.ar    
  24 Cl24          -0.7438    -4.2871     8.3964 Cl      
  25 N25            0.8127    -4.3819     6.2541 N.ar    
  26 C26            1.6408    -3.9149     5.3402 C.ar    
  27 C27            1.7654    -0.2164     3.2121 C.ar    
  28 C28            1.9250     0.8386     4.2873 C.3     
  29 C29            1.5919     2.1765     3.5941 C.3     
  30 C30            0.6494     1.7327     2.4554 C.3     
  31 C31            1.0332     0.2984     2.1606 C.ar    
  32 C32            0.7610    -0.4963     1.0521 C.ar    
  33 H33            1.0021     1.8416     0.0865 H       
  34 H34           -0.4708     1.8271    -0.9128 H       
  35 H35           -0.5996     1.8156     0.8625 H       
  36 H36           -0.2744    -0.1977    -2.0618 H       
  37 H37            1.4181    -0.1057    -1.5336 H       
  38 H38            2.0676    -2.8879    -3.2889 H       
  39 H39            1.6041    -4.2452    -2.2347 H       
  40 H40            0.4558    -3.6693    -5.0036 H       
  41 H41            1.6408    -4.9393    -4.6150 H       
  42 H42           -0.6576    -5.8651    -4.7083 H       
  43 H43            0.0127    -5.9838    -3.0636 H       
  44 H44           -1.8583    -3.7918    -4.0694 H       
  45 H45           -2.3217    -5.1491    -3.0152 H       
  46 H46           -2.9150    -3.4495    -1.2988 H       
  47 H47            2.3467    -3.3380     2.0447 H       
  48 H48            3.6564    -2.8876     3.9835 H       
  49 H49            3.6309    -1.2869     4.7615 H       
  50 H50            1.9124    -0.7340     6.4325 H       
  51 H51            0.3457    -1.6703     8.1200 H       
  52 H52            1.9951    -4.5688     4.5570 H       
  53 H53            1.2290     0.6530     5.1054 H       
  54 H54            2.9502     0.8493     4.6573 H       
  55 H55            1.0800     2.8515     4.2800 H       
  56 H56            2.4931     2.6400     3.1929 H       
  57 H57           -0.3893     1.7871     2.7813 H       
  58 H58            0.8030     2.3543     1.5733 H       
@<TRIPOS>BOND
   1    1    2 1
   2    1   33 1
   3    1   34 1
   4    1   35 1
   5    2   32 1
   6    2    3 1
   7    3    4 1
   8    3   36 1
   9    3   37 1
  10    4    5 1
  11    4   14 am
  12    5    6 1
  13    5   11 1
  14    5    7 1
  15    7    8 1
  16    7   38 1
  17    7   39 1
  18    8    9 1
  19    8   40 1
  20    8   41 1
  21    9   10 1
  22    9   42 1
  23    9   43 1
  24   10   11 1
  25   10   44 1
  26   10   45 1
  27   11   12 1
  28   11   13 1
  29   13   46 1
  30   14   15 2
  31   14   16 1
  32   16   32 ar
  33   16   17 ar
  34   17   18 ar
  35   17   47 1
  36   18   19 1
  37   18   27 ar
  38   19   20 1
  39   19   48 1
  40   19   49 1
  41   20   26 ar
  42   20   21 ar
  43   21   22 ar
  44   21   50 1
  45   22   23 ar
  46   22   51 1
  47   23   24 1
  48   23   25 ar
  49   25   26 ar
  50   26   52 1
  51   27   31 ar
  52   27   28 1
  53   28   29 1
  54   28   53 1
  55   28   54 1
  56   29   30 1
  57   29   55 1
  58   29   56 1
  59   30   31 1
  60   30   57 1
  61   30   58 1
  62   31   32 ar

#	End of record

