#	Name: ASD03730459
#	Creating user name:	WinNT
#	Creation time:	15. 06. 2019 20:44

#	Modifying user name:	WinNT
#	Modification time:	15. 06. 2019 20:44

#	Program:	/corina/corina34_cracker 3.40 0067  02.08.2006

@<TRIPOS>MOLECULE
ASD03730459
  52   57    0    0    0
SMALL
NO_CHARGES


@<TRIPOS>ATOM
   1 O1            -0.0174     1.4356     0.0099 O.3     
   2 C2             0.0021    -0.0041     0.0020 C.3     
   3 O3             1.2461    -0.3262    -0.6470 O.3     
   4 C4             2.0710     0.7345    -0.4034 C.ar    
   5 C5             1.2935     1.8178    -0.0005 C.ar    
   6 C6             3.4452     0.8649    -0.4936 C.ar    
   7 C7             4.0602     2.0747    -0.1856 C.ar    
   8 C8             3.2723     3.1522     0.2076 C.ar    
   9 C9             1.9024     3.0234     0.3045 C.ar    
  10 O10            5.3831     2.4065    -0.1922 O.3     
  11 C11            4.2098     4.3069     0.4393 C.3     
  12 C12            5.5129     3.8410    -0.2242 C.3     
  13 N13            3.6127     6.4762     0.8417 N.am    
  14 C14            3.6993     5.5834    -0.1645 C.2     
  15 C15            4.3992     4.6044     1.8972 C.ar    
  16 C16            4.8378     3.8614     2.9705 C.ar    
  17 C17            4.9039     4.4334     4.2285 C.ar    
  18 C18            4.5284     5.7527     4.4051 C.ar    
  19 C19            4.0877     6.5009     3.3334 C.ar    
  20 C20            4.0181     5.9334     2.0634 C.ar    
  21 O21            3.4201     5.7739    -1.3293 O.2     
  22 C22            3.1483     7.8554     0.6736 C.3     
  23 C23            1.6555     7.9105     0.8725 C.2     
  24 N24            1.0042     9.0856     0.7648 N.am    
  25 C25           -0.4509     9.1553     0.9560 C.3     
  26 C26           -0.7587    10.2186     2.0149 C.3     
  27 C27           -0.1147    11.5444     1.6030 C.3     
  28 C28            1.4036    11.3716     1.5192 C.3     
  29 C29            1.7367    10.3222     0.4602 C.3     
  30 O30            1.0401     6.8975     1.1294 O.2     
  31 H31           -0.0105    -0.3928     1.0203 H       
  32 H32           -0.8401    -0.3953    -0.5687 H       
  33 H33            4.0448     0.0222    -0.8046 H       
  34 H34            1.3032     3.8652     0.6186 H       
  35 H35            6.3787     4.1643     0.3536 H       
  36 H36            5.5749     4.2013    -1.2510 H       
  37 H37            5.1300     2.8312     2.8302 H       
  38 H38            5.2475     3.8510     5.0706 H       
  39 H39            4.5803     6.1993     5.3870 H       
  40 H40            3.7954     7.5303     3.4796 H       
  41 H41            3.6366     8.4954     1.4085 H       
  42 H42            3.3941     8.2017    -0.3303 H       
  43 H43           -0.9304     9.4266     0.0155 H       
  44 H44           -0.8221     8.1870     1.2918 H       
  45 H45           -1.8378    10.3484     2.0972 H       
  46 H46           -0.3555     9.9016     2.9768 H       
  47 H47           -0.4999    11.8483     0.6297 H       
  48 H48           -0.3528    12.3090     2.3425 H       
  49 H49            1.8636    12.3220     1.2486 H       
  50 H50            1.7864    11.0438     2.4856 H       
  51 H51            2.8085    10.1237     0.4689 H       
  52 H52            1.4392    10.6907    -0.5216 H       
@<TRIPOS>BOND
   1    1    2 1
   2    1    5 1
   3    2    3 1
   4    2   31 1
   5    2   32 1
   6    3    4 1
   7    4    5 ar
   8    4    6 ar
   9    5    9 ar
  10    6    7 ar
  11    6   33 1
  12    7    8 ar
  13    7   10 1
  14    8    9 ar
  15    8   11 1
  16    9   34 1
  17   10   12 1
  18   11   12 1
  19   11   14 1
  20   11   15 1
  21   12   35 1
  22   12   36 1
  23   13   14 am
  24   13   20 1
  25   13   22 1
  26   14   21 2
  27   15   16 ar
  28   15   20 ar
  29   16   17 ar
  30   16   37 1
  31   17   18 ar
  32   17   38 1
  33   18   19 ar
  34   18   39 1
  35   19   20 ar
  36   19   40 1
  37   22   23 1
  38   22   41 1
  39   22   42 1
  40   23   24 am
  41   23   30 2
  42   24   25 1
  43   24   29 1
  44   25   26 1
  45   25   43 1
  46   25   44 1
  47   26   27 1
  48   26   45 1
  49   26   46 1
  50   27   28 1
  51   27   47 1
  52   27   48 1
  53   28   29 1
  54   28   49 1
  55   28   50 1
  56   29   51 1
  57   29   52 1

#	End of record

