#	Name: ASD07931724
#	Creating user name:	WinNT
#	Creation time:	15. 06. 2019 21:13

#	Modifying user name:	WinNT
#	Modification time:	15. 06. 2019 21:13

#	Program:	/corina/corina34_cracker 3.40 0067  02.08.2006

@<TRIPOS>MOLECULE
ASD07931724
  60   64    0    0    0
SMALL
NO_CHARGES


@<TRIPOS>ATOM
   1 C1             2.0910    -2.6286    -0.2639 C.2     
   2 C2             0.9495    -1.9079    -0.4855 C.2     
   3 C3             1.0611    -0.4713    -0.7493 C.2     
   4 N4             2.2770     0.1018    -0.7691 N.am    
   5 C5             3.4109    -0.6447    -0.5410 C.2     
   6 C6             3.3321    -1.9807    -0.2938 C.2     
   7 C7             2.4251     1.5387    -1.0368 C.3     
   8 C8             3.5098     2.0883    -0.0983 C.3     
   9 N9             4.7660     1.3747    -0.3688 N.am    
  10 C10            4.7247     0.0356    -0.5683 C.2     
  11 C11            6.0388     2.0981    -0.4215 C.3     
  12 O12            0.0616     0.1977    -0.9493 O.2     
  13 N13           -0.3012    -2.5315    -0.4610 N.pl3   
  14 C14           -0.8987    -3.1181     0.6250 C.2     
  15 C15           -1.1576    -2.6660    -1.5077 C.2     
  16 N16           -2.2197    -3.3030    -1.0961 N.2     
  17 C17           -2.0876    -3.5923     0.2071 C.2     
  18 C18           -3.0958    -4.3221     1.0568 C.3     
  19 O19            5.7458    -0.5943    -0.7653 O.2     
  20 C20            6.3588     2.6687     0.9616 C.3     
  21 C21            6.3358     1.5478     2.0243 C.3     
  22 C22            5.7214     2.2242     3.2702 C.3     
  23 C23            5.4458     3.6737     2.8128 C.3     
  24 O24            5.3275     3.5911     1.3758 O.3     
  25 C25            4.1609     4.1791     3.4167 C.ar    
  26 C26            4.1839     4.8621     4.6181 C.ar    
  27 C27            2.9604     3.9642     2.7662 C.ar    
  28 C28            1.7807     4.4272     3.3191 C.ar    
  29 C29            1.8007     5.1058     4.5226 C.ar    
  30 C30            3.0034     5.3262     5.1726 C.ar    
  31 C31            5.9342     3.2412    -1.4331 C.3     
  32 F32            3.0241     5.9892     6.3496 F       
  33 C33            0.5148     5.6112     5.1244 C.3     
  34 F34           -0.5552     5.2751     4.2883 F       
  35 F35            0.3264     5.0259     6.3811 F       
  36 F36            0.5796     7.0019     5.2627 F       
  37 H37            2.0351    -3.6883    -0.0630 H       
  38 H38            4.2353    -2.5464    -0.1186 H       
  39 H39            2.7237     1.6913    -2.0739 H       
  40 H40            1.4806     2.0481    -0.8460 H       
  41 H41            3.6472     3.1539    -0.2818 H       
  42 H42            3.2131     1.9275     0.9381 H       
  43 H43            6.8324     1.4155    -0.7254 H       
  44 H44           -0.4935    -3.1865     1.6238 H       
  45 H45           -0.9879    -2.3058    -2.5116 H       
  46 H46           -2.8966    -5.3930     1.0178 H       
  47 H47           -3.0208    -3.9759     2.0877 H       
  48 H48           -4.0993    -4.1252     0.6796 H       
  49 H49            7.3304     3.1627     0.9519 H       
  50 H50            5.7104     0.7192     1.6920 H       
  51 H51            7.3476     1.2025     2.2371 H       
  52 H52            4.7922     1.7300     3.5538 H       
  53 H53            6.4293     2.2132     4.0989 H       
  54 H54            6.2767     4.3231     3.0885 H       
  55 H55            5.1225     5.0335     5.1242 H       
  56 H56            2.9438     3.4345     1.8252 H       
  57 H57            0.8432     4.2588     2.8099 H       
  58 H58            6.8812     3.7794    -1.4724 H       
  59 H59            5.7062     2.8347    -2.4184 H       
  60 H60            5.1406     3.9238    -1.1292 H       
@<TRIPOS>BOND
   1    1    2 2
   2    1    6 1
   3    1   37 1
   4    2    3 1
   5    2   13 1
   6    3    4 am
   7    3   12 2
   8    4    5 1
   9    4    7 1
  10    5    6 2
  11    5   10 1
  12    6   38 1
  13    7    8 1
  14    7   39 1
  15    7   40 1
  16    8    9 1
  17    8   41 1
  18    8   42 1
  19    9   10 am
  20    9   11 1
  21   10   19 2
  22   11   31 1
  23   11   20 1
  24   11   43 1
  25   13   14 1
  26   13   15 1
  27   14   17 2
  28   14   44 1
  29   15   16 2
  30   15   45 1
  31   16   17 1
  32   17   18 1
  33   18   46 1
  34   18   47 1
  35   18   48 1
  36   20   21 1
  37   20   24 1
  38   20   49 1
  39   21   22 1
  40   21   50 1
  41   21   51 1
  42   22   23 1
  43   22   52 1
  44   22   53 1
  45   23   24 1
  46   23   25 1
  47   23   54 1
  48   25   26 ar
  49   25   27 ar
  50   26   30 ar
  51   26   55 1
  52   27   28 ar
  53   27   56 1
  54   28   29 ar
  55   28   57 1
  56   29   30 ar
  57   29   33 1
  58   30   32 1
  59   31   58 1
  60   31   59 1
  61   31   60 1
  62   33   34 1
  63   33   35 1
  64   33   36 1

#	End of record

