#	Name: ASD01917601
#	Creating user name:	WinNT
#	Creation time:	15. 06. 2019 20:09

#	Modifying user name:	WinNT
#	Modification time:	15. 06. 2019 20:09

#	Program:	/corina/corina34_cracker 3.40 0067  02.08.2006

@<TRIPOS>MOLECULE
ASD01917601
  32   33    0    0    0
SMALL
NO_CHARGES


@<TRIPOS>ATOM
   1 C1            -0.0184     1.5028     0.0103 C.2     
   2 C2             0.0021    -0.0041     0.0020 C.3     
   3 O3             1.0197     2.1211     0.0037 O.2     
   4 O4            -1.1898     2.1580     0.0194 O.3     
   5 C5            -1.1335     3.6089     0.0270 C.3     
   6 C6            -2.5551     4.1744     0.0369 C.3     
   7 C7            -3.3015     3.6996    -1.2115 C.3     
   8 C8            -3.2897     3.6860     1.2870 C.3     
   9 C9            -1.6901     7.6942     0.0519 C.2     
  10 C10           -0.9067     8.8624     0.0542 C.2     
  11 C11           -1.5224    10.0770     0.0633 C.2     
  12 C12           -2.9240    10.1440     0.0702 C.2     
  13 C13           -3.6593     9.0090     0.0680 C.2     
  14 N14           -3.0527     7.7924     0.0589 N.pl3   
  15 N15           -3.5393     6.4775     0.0540 N.2     
  16 C16           -2.4967     5.6803     0.0448 C.2     
  17 N17           -1.3849     6.4012     0.0385 N.2     
  18 I18           -3.8804    12.0079     0.0849 I       
  19 H19            1.0345    -0.3534    -0.0097 H       
  20 H20           -0.4983    -0.3791     0.8948 H       
  21 H21           -0.5153    -0.3696    -0.8850 H       
  22 H22           -0.6017     3.9472     0.9164 H       
  23 H23           -0.6102     3.9569    -0.8636 H       
  24 H24           -3.3438     2.6104    -1.2172 H       
  25 H25           -4.3143     4.1025    -1.2045 H       
  26 H26           -2.7782     4.0476    -2.1021 H       
  27 H27           -2.7579     4.0243     2.1763 H       
  28 H28           -4.3024     4.0889     1.2940 H       
  29 H29           -3.3319     2.5968     1.2812 H       
  30 H30            0.1713     8.7969     0.0491 H       
  31 H31           -0.9354    10.9835     0.0654 H       
  32 H32           -4.7376     9.0696     0.0738 H       
@<TRIPOS>BOND
   1    1    2 1
   2    1    3 2
   3    1    4 1
   4    2   19 1
   5    2   20 1
   6    2   21 1
   7    4    5 1
   8    5    6 1
   9    5   22 1
  10    5   23 1
  11    6    7 1
  12    6    8 1
  13    6   16 1
  14    7   24 1
  15    7   25 1
  16    7   26 1
  17    8   27 1
  18    8   28 1
  19    8   29 1
  20    9   10 1
  21    9   14 1
  22    9   17 2
  23   10   11 2
  24   10   30 1
  25   11   12 1
  26   11   31 1
  27   12   13 2
  28   12   18 1
  29   13   14 1
  30   13   32 1
  31   14   15 1
  32   15   16 2
  33   16   17 1

#	End of record

