#	Name: ASD03082349
#	Creating user name:	WinNT
#	Creation time:	15. 06. 2019 20:27

#	Modifying user name:	WinNT
#	Modification time:	15. 06. 2019 20:27

#	Program:	/corina/corina34_cracker 3.40 0067  02.08.2006

@<TRIPOS>MOLECULE
ASD03082349
  46   48    0    0    0
SMALL
NO_CHARGES


@<TRIPOS>ATOM
   1 C1            -3.8251    -0.8081     0.0298 C.ar    
   2 C2            -2.7349    -0.2793     0.7086 C.ar    
   3 C3            -2.8857     0.8700     1.4736 C.ar    
   4 C4            -4.1212     1.4866     1.5583 C.ar    
   5 C5            -5.2085     0.9574     0.8806 C.ar    
   6 C6            -5.0594    -0.1894     0.1163 C.ar    
   7 F7            -6.1202    -0.7040    -0.5432 F       
   8 F8            -6.4146     1.5603     0.9646 F       
   9 N9            -1.4869    -0.9038     0.6224 N.pl3   
  10 C10           -1.4086    -2.2830     0.4029 C.2     
  11 C11           -0.2290    -3.0192     0.1974 C.2     
  12 N12           -2.4234    -3.1141     0.3588 N.2     
  13 N13           -1.9252    -4.4011     0.1186 N.pl3   
  14 C14           -0.5726    -4.3150     0.0235 C.2     
  15 C15           -2.6852    -5.5688     0.0020 C.ar    
  16 C16           -2.2746    -6.7526     0.6115 C.ar    
  17 C17           -3.8762    -5.5773    -0.7220 C.ar    
  18 C18           -4.5971    -6.7500    -0.8133 C.ar    
  19 N19           -4.1719    -7.8528    -0.2261 N.ar    
  20 C20           -3.0531    -7.8836     0.4724 C.ar    
  21 C21           -5.8866    -6.7719    -1.5928 C.3     
  22 H22           -2.7399    -8.8069     0.9371 H       
  23 C23            0.3749    -5.4591    -0.2303 C.3     
  24 C24            0.9825    -5.9218     1.0954 C.3     
  25 C25            1.8364    -7.1689     0.8574 C.3     
  26 O26            1.7998    -4.8806     1.6340 O.3     
  27 C27            2.3423    -7.7041     2.1984 C.3     
  28 F28           -4.2682     2.6046     2.3023 F       
  29 H29           -3.7082    -1.6992    -0.5690 H       
  30 H30           -2.0389     1.2821     2.0023 H       
  31 H31           -0.6753    -0.3805     0.7149 H       
  32 H32            0.7744    -2.6201     0.1810 H       
  33 H33           -1.3596    -6.7848     1.1844 H       
  34 H34           -4.2300    -4.6782    -1.2046 H       
  35 H35           -5.6790    -7.0298    -2.6314 H       
  36 H36           -6.5591    -7.5135    -1.1618 H       
  37 H37           -6.3543    -5.7884    -1.5492 H       
  38 H38           -0.1679    -6.2854    -0.6893 H       
  39 H39            1.1702    -5.1306    -0.8995 H       
  40 H40            0.1837    -6.1572     1.7987 H       
  41 H41            1.2346    -7.9327     0.3650 H       
  42 H42            2.6861    -6.9121     0.2248 H       
  43 H43            2.5328    -4.6192     1.0600 H       
  44 H44            2.9506    -8.5926     2.0288 H       
  45 H45            2.9441    -6.9403     2.6908 H       
  46 H46            1.4926    -7.9609     2.8310 H       
@<TRIPOS>BOND
   1    1    2 ar
   2    1    6 ar
   3    1   29 1
   4    2    3 ar
   5    2    9 1
   6    3    4 ar
   7    3   30 1
   8    4    5 ar
   9    4   28 1
  10    5    6 ar
  11    5    8 1
  12    6    7 1
  13    9   10 1
  14    9   31 1
  15   10   11 1
  16   10   12 2
  17   11   14 2
  18   11   32 1
  19   12   13 1
  20   13   14 1
  21   13   15 1
  22   14   23 1
  23   15   16 ar
  24   15   17 ar
  25   16   20 ar
  26   16   33 1
  27   17   18 ar
  28   17   34 1
  29   18   19 ar
  30   18   21 1
  31   19   20 ar
  32   20   22 1
  33   21   35 1
  34   21   36 1
  35   21   37 1
  36   23   24 1
  37   23   38 1
  38   23   39 1
  39   24   25 1
  40   24   26 1
  41   24   40 1
  42   25   27 1
  43   25   41 1
  44   25   42 1
  45   26   43 1
  46   27   44 1
  47   27   45 1
  48   27   46 1

#	End of record

