#	Name: ASD03030001
#	Creating user name:	WinNT
#	Creation time:	15. 06. 2019 20:26

#	Modifying user name:	WinNT
#	Modification time:	15. 06. 2019 20:26

#	Program:	/corina/corina34_cracker 3.40 0067  02.08.2006

@<TRIPOS>MOLECULE
ASD03030001
  40   42    0    0    0
SMALL
NO_CHARGES


@<TRIPOS>ATOM
   1 C1            -0.0169     1.3983     0.0097 C.ar    
   2 C2             0.0021    -0.0041     0.0020 C.ar    
   3 N3            -1.3051    -0.4581     0.0120 N.pl3   
   4 C4            -2.1838     0.6109     0.0262 C.ar    
   5 C5            -1.4362     1.7976     0.0313 C.ar    
   6 C6             1.1789     2.1128     0.0021 C.ar    
   7 C7             2.3804     1.4365    -0.0130 C.ar    
   8 C8             2.4007     0.0494    -0.0211 C.ar    
   9 C9             1.2247    -0.6688    -0.0125 C.ar    
  10 C10           -3.5737     0.6811     0.0398 C.ar    
  11 C11           -4.2027     1.9072     0.0520 C.ar    
  12 C12           -3.4620     3.0802     0.0508 C.ar    
  13 C13           -2.0840     3.0307     0.0454 C.ar    
  14 C14           -1.7019    -1.8683     0.0082 C.3     
  15 C15           -1.8262    -2.3670     1.4493 C.3     
  16 O16           -2.8931    -1.6759     2.1021 O.3     
  17 C17           -2.1182    -3.8689     1.4459 C.3     
  18 N18           -2.2376    -4.3477     2.8295 N.3     
  19 C19           -2.7487    -5.7244     2.8679 C.3     
  20 C20           -0.9537    -4.2429     3.5355 C.3     
  21 Br21          -4.3450     4.7523     0.0670 Br      
  22 Br22           4.0058     2.4030    -0.0233 Br      
  23 H23           -0.8931    -2.1795     1.9805 H       
  24 H24            1.1649     3.1927     0.0077 H       
  25 H25            3.3464    -0.4721    -0.0336 H       
  26 H26            1.2518    -1.7485    -0.0184 H       
  27 H27           -4.1598    -0.2260     0.0406 H       
  28 H28           -5.2815     1.9553     0.0622 H       
  29 H29           -1.5090     3.9449     0.0448 H       
  30 H30           -2.6619    -1.9743    -0.4970 H       
  31 H31           -0.9485    -2.4563    -0.5160 H       
  32 H32           -3.7557    -1.7979     1.6825 H       
  33 H33           -3.0514    -4.0564     0.9147 H       
  34 H34           -1.3044    -4.3961     0.9479 H       
  35 H35           -2.0656    -6.3807     2.3287 H       
  36 H36           -2.8273    -6.0540     3.9039 H       
  37 H37           -3.7323    -5.7600     2.3996 H       
  38 H38           -0.6324    -3.2015     3.5526 H       
  39 H39           -1.0704    -4.6039     4.5573 H       
  40 H40           -0.2056    -4.8455     3.0205 H       
@<TRIPOS>BOND
   1    1    2 ar
   2    1    6 ar
   3    1    5 1
   4    2    3 1
   5    2    9 ar
   6    3    4 1
   7    3   14 1
   8    4    5 ar
   9    4   10 ar
  10    5   13 ar
  11    6    7 ar
  12    6   24 1
  13    7    8 ar
  14    7   22 1
  15    8    9 ar
  16    8   25 1
  17    9   26 1
  18   10   11 ar
  19   10   27 1
  20   11   12 ar
  21   11   28 1
  22   12   13 ar
  23   12   21 1
  24   13   29 1
  25   14   15 1
  26   14   30 1
  27   14   31 1
  28   15   16 1
  29   15   17 1
  30   15   23 1
  31   16   32 1
  32   17   18 1
  33   17   33 1
  34   17   34 1
  35   18   19 1
  36   18   20 1
  37   19   35 1
  38   19   36 1
  39   19   37 1
  40   20   38 1
  41   20   39 1
  42   20   40 1

#	End of record

