#	Name: ASD08178307
#	Creating user name:	WinNT
#	Creation time:	15. 06. 2019 21:18

#	Modifying user name:	WinNT
#	Modification time:	15. 06. 2019 21:18

#	Program:	/corina/corina34_cracker 3.40 0067  02.08.2006

@<TRIPOS>MOLECULE
ASD08178307
  84   89    0    0    0
SMALL
NO_CHARGES


@<TRIPOS>ATOM
   1 N1             0.8590     2.1011    -0.1865 N.am    
   2 C2             0.8137     0.7074    -0.1840 C.ar    
   3 C3             1.9939    -0.0313    -0.2418 C.ar    
   4 N4            -0.3510     0.0796    -0.1211 N.ar    
   5 N5            -0.4358    -1.2011    -0.1161 N.ar    
   6 C6             0.6287    -1.9773    -0.1730 C.ar    
   7 C7             1.8950    -1.4143    -0.2361 C.ar    
   8 C8             0.4698    -3.4758    -0.1633 C.3     
   9 C9            -0.3418    -3.8948     1.0641 C.3     
  10 C10           -0.5031    -5.4162     1.0739 C.3     
  11 C11           -1.3147    -5.8352     2.3014 C.3     
  12 C12           -1.4735    -7.3337     2.3111 C.2     
  13 N13           -0.6712    -8.1834     2.8695 N.2     
  14 N14           -0.9795    -9.4033     2.7664 N.2     
  15 C15           -2.0642    -9.6983     2.1156 C.2     
  16 S16           -2.7896    -8.2453     1.5703 S.3     
  17 N17           -2.5578   -10.9807     1.9017 N.am    
  18 C18           -1.8949   -12.0480     2.3895 C.2     
  19 C19           -2.4299   -13.4377     2.1577 C.3     
  20 O20           -0.8679   -11.8901     3.0150 O.2     
  21 C21           -1.5101   -14.4437     2.8004 C.ar    
  22 C22           -0.2846     2.8123    -0.2404 C.2     
  23 C23           -0.2443     4.3140    -0.1206 C.3     
  24 O24           -1.3460     2.2439    -0.3855 O.2     
  25 C25           -1.7183   -14.8313     4.1097 C.ar    
  26 C26           -0.8714   -15.7579     4.7007 C.ar    
  27 C27            0.1826   -16.2927     3.9747 C.ar    
  28 C28            0.3867   -15.9017     2.6653 C.ar    
  29 C29           -0.4617   -14.9822     2.0771 C.ar    
  30 C30           -1.6448     4.8630    -0.2115 C.ar    
  31 C31           -2.4003     5.0229     0.9350 C.ar    
  32 C32           -3.6850     5.5264     0.8515 C.ar    
  33 C33           -4.2140     5.8704    -0.3784 C.ar    
  34 C34           -3.4582     5.7113    -1.5248 C.ar    
  35 C35           -2.1719     5.2119    -1.4409 C.ar    
  36 O36           -1.0739   -16.1406     5.9889 O.3     
  37 C37           -2.1221   -15.4831     6.7038 C.3     
  38 C38           -2.5973   -16.3764     7.8550 C.3     
  39 O39           -3.5509   -15.6541     8.6402 O.3     
  40 C40           -3.0465   -14.4280     9.1751 C.3     
  41 O41           -2.6162   -13.5827     8.1054 O.3     
  42 C42           -1.5992   -14.1644     7.2839 C.3     
  43 C43           -4.1336   -13.7358     9.9562 C.ar    
  44 C44           -3.8788   -12.5238    10.5702 C.ar    
  45 C45           -4.8760   -11.8889    11.2867 C.ar    
  46 C46           -6.1280   -12.4658    11.3889 C.ar    
  47 C47           -6.3830   -13.6775    10.7742 C.ar    
  48 C48           -5.3871   -14.3102    10.0540 C.ar    
  49 H49            1.7132     2.5587    -0.1453 H       
  50 H50            2.9555     0.4581    -0.2898 H       
  51 H51            2.7776    -2.0350    -0.2836 H       
  52 H52           -0.0499    -3.7919    -1.0678 H       
  53 H53            1.4529    -3.9452    -0.1264 H       
  54 H54            0.1779    -3.5787     1.9686 H       
  55 H55           -1.3249    -3.4254     1.0272 H       
  56 H56           -1.0228    -5.7323     0.1695 H       
  57 H57            0.4800    -5.8856     1.1109 H       
  58 H58           -0.7949    -5.5190     3.2058 H       
  59 H59           -2.2978    -5.3658     2.2644 H       
  60 H60           -3.3792   -11.1071     1.4014 H       
  61 H61           -3.4241   -13.5222     2.5964 H       
  62 H62           -2.4878   -13.6308     1.0865 H       
  63 H63            0.1926     4.5903     0.8391 H       
  64 H64            0.3609     4.7269    -0.9277 H       
  65 H65           -2.5395   -14.4133     4.6730 H       
  66 H66            0.8435   -17.0138     4.4326 H       
  67 H67            1.2072   -16.3177     2.0996 H       
  68 H68           -0.3005   -14.6778     1.0534 H       
  69 H69           -1.9870     4.7542     1.8959 H       
  70 H70           -4.2755     5.6507     1.7472 H       
  71 H71           -5.2180     6.2631    -0.4437 H       
  72 H72           -3.8716     5.9797    -2.4858 H       
  73 H73           -1.5814     5.0876    -2.3366 H       
  74 H74           -2.9545   -15.2830     6.0292 H       
  75 H75           -3.0631   -17.2752     7.4510 H       
  76 H76           -1.7464   -16.6528     8.4776 H       
  77 H77           -2.2036   -14.6383     9.8335 H       
  78 H78           -0.7105   -14.3570     7.8849 H       
  79 H79           -1.3513   -13.4813     6.4715 H       
  80 H80           -2.9007   -12.0730    10.4903 H       
  81 H81           -4.6768   -10.9423    11.7670 H       
  82 H82           -6.9069   -11.9702    11.9494 H       
  83 H83           -7.3611   -14.1284    10.8544 H       
  84 H84           -5.5863   -15.2568     9.5738 H       
@<TRIPOS>BOND
   1    1    2 1
   2    1   22 am
   3    1   49 1
   4    2    3 ar
   5    2    4 ar
   6    3    7 ar
   7    3   50 1
   8    4    5 ar
   9    5    6 ar
  10    6    7 ar
  11    6    8 1
  12    7   51 1
  13    8    9 1
  14    8   52 1
  15    8   53 1
  16    9   10 1
  17    9   54 1
  18    9   55 1
  19   10   11 1
  20   10   56 1
  21   10   57 1
  22   11   12 1
  23   11   58 1
  24   11   59 1
  25   12   13 2
  26   12   16 1
  27   13   14 1
  28   14   15 2
  29   15   16 1
  30   15   17 1
  31   17   18 am
  32   17   60 1
  33   18   19 1
  34   18   20 2
  35   19   21 1
  36   19   61 1
  37   19   62 1
  38   21   25 ar
  39   21   29 ar
  40   22   23 1
  41   22   24 2
  42   23   30 1
  43   23   63 1
  44   23   64 1
  45   25   26 ar
  46   25   65 1
  47   26   27 ar
  48   26   36 1
  49   27   28 ar
  50   27   66 1
  51   28   29 ar
  52   28   67 1
  53   29   68 1
  54   30   31 ar
  55   30   35 ar
  56   31   32 ar
  57   31   69 1
  58   32   33 ar
  59   32   70 1
  60   33   34 ar
  61   33   71 1
  62   34   35 ar
  63   34   72 1
  64   35   73 1
  65   36   37 1
  66   37   38 1
  67   37   42 1
  68   37   74 1
  69   38   39 1
  70   38   75 1
  71   38   76 1
  72   39   40 1
  73   40   41 1
  74   40   43 1
  75   40   77 1
  76   41   42 1
  77   42   78 1
  78   42   79 1
  79   43   44 ar
  80   43   48 ar
  81   44   45 ar
  82   44   80 1
  83   45   46 ar
  84   45   81 1
  85   46   47 ar
  86   46   82 1
  87   47   48 ar
  88   47   83 1
  89   48   84 1

#	End of record

