#	Name: ASD01230046
#	Creating user name:	WinNT
#	Creation time:	15. 06. 2019 19:11

#	Modifying user name:	WinNT
#	Modification time:	15. 06. 2019 19:11

#	Program:	/corina/corina34_cracker 3.40 0067  02.08.2006

@<TRIPOS>MOLECULE
ASD01230046
  25   26    0    0    0
SMALL
NO_CHARGES


@<TRIPOS>ATOM
   1 C1            -0.0881     1.3412     0.1478 C.ar    
   2 C2            -0.0235    -0.0441     0.1154 C.ar    
   3 S3             1.4054     2.2836     0.0199 S.o2    
   4 N4             2.6133     1.1307     0.0801 N.am    
   5 C5             2.2908    -0.1391    -0.6044 C.3     
   6 N6             1.1567    -0.7695     0.0587 N.3     
   7 O7             1.4315     2.8419    -1.2866 O.2     
   8 O8             1.5106     3.0550     1.2087 O.2     
   9 C9            -1.2265    -0.7583     0.1841 C.ar    
  10 C10           -2.4132    -0.0584     0.2964 C.ar    
  11 C11           -2.3853     1.3230     0.3387 C.ar    
  12 N12           -1.2395     1.9711     0.2647 N.ar    
  13 C13            0.9203    -2.1189    -0.4715 C.3     
  14 C14            0.3958    -2.0188    -1.9053 C.3     
  15 H15            3.4598     1.2828     0.5288 H       
  16 H16            2.0376     0.0628    -1.6452 H       
  17 H17            3.1531    -0.8046    -0.5618 H       
  18 H18           -1.2269    -1.8378     0.1497 H       
  19 H19           -3.3539    -0.5861     0.3501 H       
  20 H20           -3.3086     1.8753     0.4331 H       
  21 H21            1.8543    -2.6807    -0.4647 H       
  22 H22            0.1845    -2.6296     0.1497 H       
  23 H23           -0.5382    -1.4570    -1.9122 H       
  24 H24            1.1316    -1.5081    -2.5265 H       
  25 H25            0.2204    -3.0201    -2.2988 H       
@<TRIPOS>BOND
   1    1    2 ar
   2    1    3 1
   3    1   12 ar
   4    2    9 ar
   5    2    6 1
   6    3    4 am
   7    3    7 2
   8    3    8 2
   9    4    5 1
  10    4   15 1
  11    5    6 1
  12    5   16 1
  13    5   17 1
  14    6   13 1
  15    9   10 ar
  16    9   18 1
  17   10   11 ar
  18   10   19 1
  19   11   12 ar
  20   11   20 1
  21   13   14 1
  22   13   21 1
  23   13   22 1
  24   14   23 1
  25   14   24 1
  26   14   25 1

#	End of record

