#	Name: ASD01810178
#	Creating user name:	WinNT
#	Creation time:	15. 06. 2019 19:24

#	Modifying user name:	WinNT
#	Modification time:	15. 06. 2019 19:24

#	Program:	/corina/corina34_cracker 3.40 0067  02.08.2006

@<TRIPOS>MOLECULE
ASD01810178
  37   39    0    0    0
SMALL
NO_CHARGES


@<TRIPOS>ATOM
   1 C1             0.0528     1.3587     0.2754 C.ar    
   2 C2             0.0823    -0.0283     0.2665 C.ar    
   3 C3             1.2770    -0.7064     0.1594 C.ar    
   4 C4             2.4719     0.0012     0.0587 C.ar    
   5 C5             2.4393     1.4062     0.0680 C.ar    
   6 C6             1.2228     2.0792     0.1769 C.ar    
   7 N7             3.6733    -0.6654    -0.0484 N.pl3   
   8 C8             4.8487    -0.0315    -0.1473 C.2     
   9 C9             4.9440     1.3455    -0.1488 C.2     
  10 C10            3.7121     2.1435    -0.0394 C.2     
  11 O11            3.7426     3.3616    -0.0365 O.2     
  12 C12            6.2536     2.0038    -0.2583 C.2     
  13 O13            6.3336     3.3495    -0.2587 O.3     
  14 O14            7.2645     1.3348    -0.3486 O.2     
  15 C15            3.6642    -2.1304    -0.0538 C.3     
  16 C16            3.4766    -2.6264    -1.4644 C.ar    
  17 C17            3.2842    -1.7247    -2.4941 C.ar    
  18 C18            3.1121    -2.1797    -3.7883 C.ar    
  19 C19            3.1328    -3.5363    -4.0524 C.ar    
  20 C20            3.3262    -4.4381    -3.0225 C.ar    
  21 C21            3.5026    -3.9831    -1.7294 C.ar    
  22 C22            3.7134    -4.9661    -0.6068 C.3     
  23 F23            3.6212    -6.2700    -1.1053 F       
  24 F24            4.9802    -4.7696    -0.0466 F       
  25 F25            2.7346    -4.7713     0.3736 F       
  26 H26           -0.8919     1.8759     0.3555 H       
  27 H27           -0.8412    -0.5827     0.3446 H       
  28 H28            1.2866    -1.7864     0.1540 H       
  29 H29            1.1981     3.1589     0.1837 H       
  30 H30            5.7525    -0.6173    -0.2283 H       
  31 H31            7.2165     3.7368    -0.3328 H       
  32 H32            4.6111    -2.5011     0.3387 H       
  33 H33            2.8462    -2.4909     0.5699 H       
  34 H34            3.2680    -0.6647    -2.2878 H       
  35 H35            2.9610    -1.4752    -4.5928 H       
  36 H36            2.9976    -3.8917    -5.0632 H       
  37 H37            3.3421    -5.4981    -3.2288 H       
@<TRIPOS>BOND
   1    1    2 ar
   2    1    6 ar
   3    1   26 1
   4    2    3 ar
   5    2   27 1
   6    3    4 ar
   7    3   28 1
   8    4    5 ar
   9    4    7 1
  10    5    6 ar
  11    5   10 1
  12    6   29 1
  13    7    8 1
  14    7   15 1
  15    8    9 2
  16    8   30 1
  17    9   10 1
  18    9   12 1
  19   10   11 2
  20   12   13 1
  21   12   14 2
  22   13   31 1
  23   15   16 1
  24   15   32 1
  25   15   33 1
  26   16   17 ar
  27   16   21 ar
  28   17   18 ar
  29   17   34 1
  30   18   19 ar
  31   18   35 1
  32   19   20 ar
  33   19   36 1
  34   20   21 ar
  35   20   37 1
  36   21   22 1
  37   22   23 1
  38   22   24 1
  39   22   25 1

#	End of record

