#	Name: ASD01410873
#	Creating user name:	WinNT
#	Creation time:	15. 06. 2019 19:18

#	Modifying user name:	WinNT
#	Modification time:	15. 06. 2019 19:18

#	Program:	/corina/corina34_cracker 3.40 0067  02.08.2006

@<TRIPOS>MOLECULE
ASD01410873
 131  138    0    0    0
SMALL
NO_CHARGES


@<TRIPOS>ATOM
   1 C1             0.9939     2.6848     2.7464 C.3     
   2 C2             1.1099     1.1468     2.6347 C.3     
   3 N3             0.6331     0.6451     3.9400 N.am    
   4 C4            -0.3027     1.6272     4.5013 C.3     
   5 C5            -0.3346     2.8330     3.5372 C.3     
   6 O6             2.0919     3.2306     3.4802 O.3     
   7 C7            -1.6781     1.0209     4.6096 C.2     
   8 O8            -1.8663    -0.1230     4.2534 O.2     
   9 N9            -2.6990     1.7499     5.1022 N.am    
  10 C10            2.5833     0.7482     2.4951 C.3     
  11 C11            2.1617    -1.3113     3.9311 C.3     
  12 C12            1.0365    -0.5019     4.5120 C.2     
  13 O13            0.4818    -0.8916     5.5177 O.2     
  14 C14            1.6536    -2.7188     3.6124 C.3     
  15 C15            0.6104    -2.6438     2.4957 C.3     
  16 C16           -4.0563     1.1986     5.1093 C.3     
  17 C17           -4.6591     0.9380     3.7529 C.2     
  18 N18           -3.9978     1.3099     2.6389 N.am    
  19 O19           -5.7392     0.3937     3.6637 O.2     
  20 S20           -4.5992     0.9133     1.1478 S.o2    
  21 C21           -6.1604     1.8296     1.0310 C.3     
  22 C22           -4.4222     0.2368     6.2415 C.3     
  23 C23           -4.9984     1.6549     6.2251 C.3     
  24 C24           -7.0330     1.5843    -0.2016 C.3     
  25 C25           -7.4593     1.0315     1.1598 C.3     
  26 O26           -3.6445     1.4363     0.2344 O.2     
  27 O27           -4.8459    -0.4837     1.2297 O.2     
  28 C28           -5.3726    -0.9155     5.9101 C.3     
  29 C29           -5.5139    -1.8271     7.1307 C.3     
  30 C30            2.3832     4.5384     3.2704 C.ar    
  31 C31            3.4754     5.1532     3.9261 C.ar    
  32 C32            1.6308     5.2978     2.4132 C.ar    
  33 C33            1.9529     6.6471     2.2133 C.ar    
  34 N34            2.9733     7.2137     2.8348 N.ar    
  35 C35            3.7456     6.5218     3.6785 C.ar    
  36 C36            1.1334     7.4553     1.2861 C.2     
  37 S37           -0.2613     6.8723     0.3812 S.3     
  38 C38            4.8273     7.1356     4.3338 C.ar    
  39 C39            5.6058     6.3985     5.1981 C.ar    
  40 C40            5.3322     5.0477     5.4308 C.ar    
  41 C41            4.2882     4.4312     4.8120 C.ar    
  42 Cl42           5.1800     8.8123     4.0545 Cl      
  43 O43            6.6518     6.9909     5.8314 O.3     
  44 C44            7.4218     6.1739     6.7156 C.3     
  45 N45            1.3230     8.7142     1.0110 N.2     
  46 C46            0.4940     9.2713     0.1618 C.2     
  47 C47           -0.4633     8.4731    -0.3283 C.2     
  48 C48            0.6097    10.7201    -0.2364 C.3     
  49 C49            1.4142    10.8300    -1.5332 C.3     
  50 C50           -0.7884    11.3028    -0.4527 C.3     
  51 C51            1.0180    -3.3272     4.8641 C.3     
  52 C52            0.1892    -4.0591     2.0953 C.3     
  53 C53            8.5469     7.0084     7.3310 C.3     
  54 N54            7.9693     8.0605     8.1780 N.3     
  55 C55            9.0110     8.7302     8.9702 C.3     
  56 C56            6.9195     7.5164     9.0516 C.3     
  57 C57            6.3052     8.6540     9.8717 C.3     
  58 O58            7.3370     9.3131    10.6109 O.3     
  59 C59            8.3757     9.8556     9.7911 C.3     
  60 N60            2.6791    -0.7016     2.7081 N.am    
  61 O61            3.8014    -0.9154     0.6738 O.3     
  62 C62            4.3983    -1.8124    -0.2996 C.3     
  63 C63            3.3325    -2.7753    -0.8267 C.3     
  64 C64            4.9687    -0.9971    -1.4618 C.3     
  65 C65            5.5227    -2.6099     0.3642 C.3     
  66 C66            3.2501    -1.4778     1.7658 C.2     
  67 O67            3.2673    -2.6851     1.9018 O.2     
  68 H68            0.9171     3.1443     1.7610 H       
  69 H69            0.5037     0.7614     1.8149 H       
  70 H70            0.0419     1.9477     5.4845 H       
  71 H71           -0.3496     3.7705     4.0930 H       
  72 H72           -1.1915     2.7677     2.8667 H       
  73 H73           -2.5351     2.6397     5.4521 H       
  74 H74            2.9403     0.9987     1.4961 H       
  75 H75            3.1796     1.2712     3.2428 H       
  76 H76            2.9666    -1.3800     4.6629 H       
  77 H77            2.4877    -3.3417     3.2891 H       
  78 H78           -0.2606    -2.0917     2.8488 H       
  79 H79            1.0382    -2.1340     1.6325 H       
  80 H80           -3.1697     1.8098     2.7106 H       
  81 H81           -6.1457     2.8379     1.4447 H       
  82 H82           -3.6531     0.0143     6.9811 H       
  83 H83           -4.6083     2.3651     6.9542 H       
  84 H84           -6.0542     1.7664     5.9784 H       
  85 H85           -7.5927     2.4312    -0.5986 H       
  86 H86           -6.6690     0.8723    -0.9424 H       
  87 H87           -7.3758    -0.0442     1.3147 H       
  88 H88           -8.2995     1.5146     1.6585 H       
  89 H89           -6.3498    -0.5147     5.6410 H       
  90 H90           -4.9717    -1.4880     5.0736 H       
  91 H91           -6.1909    -2.6481     6.8947 H       
  92 H92           -4.5367    -2.2280     7.3999 H       
  93 H93           -5.9147    -1.2547     7.9673 H       
  94 H94            0.7926     4.8580     1.8932 H       
  95 H95            5.9548     4.4871     6.1124 H       
  96 H96            4.0879     3.3869     5.0007 H       
  97 H97            6.7791     5.7901     7.5079 H       
  98 H98            7.8503     5.3402     6.1594 H       
  99 H99           -1.2275     8.7609    -1.0350 H       
 100 H100           1.1162    11.2747     0.5535 H       
 101 H101           0.9077    10.2754    -2.3231 H       
 102 H102           1.4978    11.8779    -1.8212 H       
 103 H103           2.4102    10.4149    -1.3791 H       
 104 H104          -1.2949    10.7482    -1.2426 H       
 105 H105          -1.3616    11.2245     0.4711 H       
 106 H106          -0.7048    12.3507    -0.7407 H       
 107 H107           0.0620    -2.8411     5.0591 H       
 108 H108           0.8580    -4.3941     4.7085 H       
 109 H109           1.6811    -3.1798     5.7166 H       
 110 H110           1.0602    -4.6112     1.7422 H       
 111 H111          -0.2387    -4.5688     2.9585 H       
 112 H112          -0.5540    -4.0056     1.2997 H       
 113 H113           9.1869     6.3657     7.9356 H       
 114 H114           9.1371     7.4648     6.5364 H       
 115 H115           9.4779     8.0092     9.6412 H       
 116 H116           9.7643     9.1476     8.3022 H       
 117 H117           6.1462     7.0477     8.4430 H       
 118 H118           7.3530     6.7760     9.7239 H       
 119 H119           5.8249     9.3672     9.2019 H       
 120 H120           5.5661     8.2472    10.5619 H       
 121 H121           9.1340    10.3179    10.4230 H       
 122 H122           7.9556    10.6039     9.1190 H       
 123 H123           2.5315    -2.2071    -1.2995 H       
 124 H124           3.7806    -3.4486    -1.5573 H       
 125 H125           2.9261    -3.3561     0.0014 H       
 126 H126           5.7280    -0.3112    -1.0863 H       
 127 H127           5.4168    -1.6705    -2.1925 H       
 128 H128           4.1677    -0.4290    -1.9347 H       
 129 H129           5.1163    -3.1907     1.1922 H       
 130 H130           5.9708    -3.2833    -0.3665 H       
 131 H131           6.2820    -1.9240     0.7397 H       
@<TRIPOS>BOND
   1    1    2 1
   2    1    6 1
   3    1    5 1
   4    1   68 1
   5    2    3 1
   6    2   10 1
   7    2   69 1
   8    3    4 1
   9    3   12 am
  10    4    5 1
  11    4    7 1
  12    4   70 1
  13    5   71 1
  14    5   72 1
  15    6   30 1
  16    7    8 2
  17    7    9 am
  18    9   16 1
  19    9   73 1
  20   10   60 1
  21   10   74 1
  22   10   75 1
  23   11   12 1
  24   11   14 1
  25   11   60 1
  26   11   76 1
  27   12   13 2
  28   14   15 1
  29   14   51 1
  30   14   77 1
  31   15   52 1
  32   15   78 1
  33   15   79 1
  34   16   17 1
  35   16   22 1
  36   16   23 1
  37   17   18 am
  38   17   19 2
  39   18   20 am
  40   18   80 1
  41   20   21 1
  42   20   26 2
  43   20   27 2
  44   21   24 1
  45   21   25 1
  46   21   81 1
  47   22   23 1
  48   22   28 1
  49   22   82 1
  50   23   83 1
  51   23   84 1
  52   24   25 1
  53   24   85 1
  54   24   86 1
  55   25   87 1
  56   25   88 1
  57   28   29 1
  58   28   89 1
  59   28   90 1
  60   29   91 1
  61   29   92 1
  62   29   93 1
  63   30   31 ar
  64   30   32 ar
  65   31   35 ar
  66   31   41 ar
  67   32   33 ar
  68   32   94 1
  69   33   34 ar
  70   33   36 1
  71   34   35 ar
  72   35   38 ar
  73   36   45 2
  74   36   37 1
  75   37   47 1
  76   38   39 ar
  77   38   42 1
  78   39   40 ar
  79   39   43 1
  80   40   41 ar
  81   40   95 1
  82   41   96 1
  83   43   44 1
  84   44   53 1
  85   44   97 1
  86   44   98 1
  87   45   46 1
  88   46   47 2
  89   46   48 1
  90   47   99 1
  91   48   49 1
  92   48   50 1
  93   48  100 1
  94   49  101 1
  95   49  102 1
  96   49  103 1
  97   50  104 1
  98   50  105 1
  99   50  106 1
 100   51  107 1
 101   51  108 1
 102   51  109 1
 103   52  110 1
 104   52  111 1
 105   52  112 1
 106   53   54 1
 107   53  113 1
 108   53  114 1
 109   54   55 1
 110   54   56 1
 111   55   59 1
 112   55  115 1
 113   55  116 1
 114   56   57 1
 115   56  117 1
 116   56  118 1
 117   57   58 1
 118   57  119 1
 119   57  120 1
 120   58   59 1
 121   59  121 1
 122   59  122 1
 123   60   66 am
 124   61   62 1
 125   61   66 1
 126   62   63 1
 127   62   64 1
 128   62   65 1
 129   63  123 1
 130   63  124 1
 131   63  125 1
 132   64  126 1
 133   64  127 1
 134   64  128 1
 135   65  129 1
 136   65  130 1
 137   65  131 1
 138   66   67 2

#	End of record

