#	Name: ASD08150134
#	Creating user name:	WinNT
#	Creation time:	15. 06. 2019 21:15

#	Modifying user name:	WinNT
#	Modification time:	15. 06. 2019 21:15

#	Program:	/corina/corina34_cracker 3.40 0067  02.08.2006

@<TRIPOS>MOLECULE
ASD08150134
  55   58    0    0    0
SMALL
NO_CHARGES


@<TRIPOS>ATOM
   1 O1            -0.8052     0.9806    -1.7690 O.3     
   2 C2            -0.6376    -0.2873    -1.3772 C.2     
   3 N3             0.6388    -0.6951    -1.3927 N.am    
   4 C4             1.4877     0.4152    -1.8511 C.3     
   5 C5             0.4883     1.5599    -2.1066 C.3     
   6 O6            -1.5584    -1.0036    -1.0378 O.2     
   7 C7             0.5200     1.9812    -3.5771 C.3     
   8 C8             2.2147     0.0379    -3.1434 C.3     
   9 O9             3.1476    -1.0110    -2.8763 O.3     
  10 C10            2.8269    -3.4311    -0.6524 C.ar    
  11 N11            1.9953    -4.4129    -0.3415 N.ar    
  12 C12            0.6763    -4.2211    -0.3605 C.ar    
  13 C13            0.1794    -2.9671    -0.7138 C.ar    
  14 C14            1.0876    -1.9616    -1.0339 C.ar    
  15 N15            2.3896    -2.2279    -0.9925 N.ar    
  16 C16           -1.9221    -7.3226     0.6200 C.ar    
  17 N17           -0.9431    -7.5515    -0.2443 N.ar    
  18 C18           -0.0987    -6.5935    -0.5809 C.ar    
  19 C19           -0.2490    -5.3252    -0.0117 C.ar    
  20 C20           -1.2938    -5.1252     0.8952 C.ar    
  21 N21           -2.0971    -6.1343     1.1807 N.ar    
  22 C22            1.0113    -6.8634    -1.5639 C.3     
  23 F23            0.7924    -8.0966    -2.1873 F       
  24 F24            1.0360    -5.8509    -2.5290 F       
  25 F25            2.2358    -6.8934    -0.8879 F       
  26 N26            4.1903    -3.6665    -0.6157 N.3     
  27 C27            4.9154    -2.4875    -0.1203 C.3     
  28 C28            6.4097    -2.8108    -0.0394 C.3     
  29 O29            6.8720    -3.2295    -1.3264 O.3     
  30 C30            6.1879    -4.3761    -1.8389 C.3     
  31 C31            4.6914    -4.0686    -1.9380 C.3     
  32 C32            4.3971    -2.1160     1.2705 C.3     
  33 N33           -2.7882    -8.3507     0.9413 N.pl3   
  34 H34            2.2018     0.6961    -1.0769 H       
  35 H35            0.7070     2.4096    -1.4599 H       
  36 H36           -0.2411     2.7413    -3.7537 H       
  37 H37            1.5023     2.3879    -3.8175 H       
  38 H38            0.3212     1.1147    -4.2077 H       
  39 H39            1.4890    -0.3008    -3.8828 H       
  40 H40            2.7466     0.9079    -3.5284 H       
  41 H41            3.6457    -1.3016    -3.6526 H       
  42 H42           -0.8840    -2.7804    -0.7389 H       
  43 H43           -1.4424    -4.1596     1.3554 H       
  44 H44            4.7603    -1.6516    -0.8025 H       
  45 H45            6.9580    -1.9220     0.2728 H       
  46 H46            6.5704    -3.6109     0.6831 H       
  47 H47            6.5757    -4.6193    -2.8281 H       
  48 H48            6.3421    -5.2217    -1.1687 H       
  49 H49            4.1585    -4.9581    -2.2741 H       
  50 H50            4.5326    -3.2580    -2.6493 H       
  51 H51            4.5944    -2.9348     1.9624 H       
  52 H52            4.9039    -1.2159     1.6186 H       
  53 H53            3.3238    -1.9326     1.2211 H       
  54 H54           -2.6750    -9.2247     0.5361 H       
  55 H55           -3.5092    -8.1983     1.5720 H       
@<TRIPOS>BOND
   1    1    2 1
   2    1    5 1
   3    2    3 am
   4    2    6 2
   5    3    4 1
   6    3   14 1
   7    4    5 1
   8    4    8 1
   9    4   34 1
  10    5    7 1
  11    5   35 1
  12    7   36 1
  13    7   37 1
  14    7   38 1
  15    8    9 1
  16    8   39 1
  17    8   40 1
  18    9   41 1
  19   10   11 ar
  20   10   15 ar
  21   10   26 1
  22   11   12 ar
  23   12   13 ar
  24   12   19 1
  25   13   14 ar
  26   13   42 1
  27   14   15 ar
  28   16   17 ar
  29   16   21 ar
  30   16   33 1
  31   17   18 ar
  32   18   19 ar
  33   18   22 1
  34   19   20 ar
  35   20   21 ar
  36   20   43 1
  37   22   23 1
  38   22   24 1
  39   22   25 1
  40   26   27 1
  41   26   31 1
  42   27   28 1
  43   27   32 1
  44   27   44 1
  45   28   29 1
  46   28   45 1
  47   28   46 1
  48   29   30 1
  49   30   31 1
  50   30   47 1
  51   30   48 1
  52   31   49 1
  53   31   50 1
  54   32   51 1
  55   32   52 1
  56   32   53 1
  57   33   54 1
  58   33   55 1

#	End of record

