#	Name: ASD02198165
#	Creating user name:	WinNT
#	Creation time:	15. 06. 2019 20:18

#	Modifying user name:	WinNT
#	Modification time:	15. 06. 2019 20:18

#	Program:	/corina/corina34_cracker 3.40 0067  02.08.2006

@<TRIPOS>MOLECULE
ASD02198165
  47   50    0    0    0
SMALL
NO_CHARGES


@<TRIPOS>ATOM
   1 C1            -0.8439     1.2424    -0.9338 C.2     
   2 C2            -0.8369    -0.1038    -1.2338 C.2     
   3 C3            -1.9642    -0.7838    -1.7972 C.1     
   4 S4             0.6540     1.7275    -0.2799 S.3     
   5 C5             1.3099     0.1032    -0.4063 C.2     
   6 C6             0.3658    -0.7422    -0.9397 C.2     
   7 C7             2.6091    -0.2767    -0.0190 C.2     
   8 C8             3.5803     0.7497     0.4192 C.ar    
   9 O9             2.9339    -1.4518    -0.0449 O.2     
  10 N10            0.5879    -2.0922    -1.1618 N.pl3   
  11 N11           -1.9137     2.0820    -1.1400 N.pl3   
  12 N12           -2.8585    -1.3233    -2.2441 N.1     
  13 C13            3.8816     0.8964     1.7738 C.ar    
  14 C14           -1.7730     3.4586    -0.9317 C.ar    
  15 C15           -0.6299     4.1145    -1.3703 C.ar    
  16 C16           -2.7790     4.1709    -0.2914 C.ar    
  17 C17           -0.4921     5.4729    -1.1648 C.ar    
  18 C18           -1.4951     6.1827    -0.5204 C.ar    
  19 C19            4.7881     1.8555     2.1760 C.ar    
  20 C20            5.3986     2.6715     1.2400 C.ar    
  21 C21            5.1050     2.5326    -0.1045 C.ar    
  22 C22            4.2041     1.5725    -0.5217 C.ar    
  23 C23           -2.6396     5.5292    -0.0866 C.ar    
  24 O24           -1.3584     7.5202    -0.3180 O.3     
  25 C25           -2.3493     8.1691     0.3479 C.ar    
  26 C26           -2.4963     7.9953     1.7167 C.ar    
  27 C27           -3.5041     8.6565     2.3914 C.ar    
  28 C28           -4.3660     9.4911     1.7039 C.ar    
  29 C29           -4.2220     9.6658     0.3399 C.ar    
  30 C30           -3.2123     9.0113    -0.3387 C.ar    
  31 Cl31           3.8367     1.3987    -2.2094 Cl      
  32 H32            1.4457    -2.4858    -0.9378 H       
  33 H33           -0.1144    -2.6433    -1.5411 H       
  34 H34           -2.7656     1.7199    -1.4298 H       
  35 H35            3.4059     0.2607     2.5058 H       
  36 H36            0.1510     3.5621    -1.8716 H       
  37 H37           -3.6701     3.6624     0.0460 H       
  38 H38            0.3968     5.9830    -1.5055 H       
  39 H39            5.0216     1.9699     3.2242 H       
  40 H40            6.1075     3.4205     1.5608 H       
  41 H41            5.5847     3.1729    -0.8299 H       
  42 H42           -3.4199     6.0824     0.4149 H       
  43 H43           -1.8236     7.3433     2.2541 H       
  44 H44           -3.6192     8.5213     3.4567 H       
  45 H45           -5.1533    10.0072     2.2333 H       
  46 H46           -4.8969    10.3176    -0.1949 H       
  47 H47           -3.1000     9.1484    -1.4040 H       
@<TRIPOS>BOND
   1    1    2 2
   2    1    4 1
   3    1   11 1
   4    2    3 1
   5    2    6 1
   6    3   12 3
   7    4    5 1
   8    5    6 2
   9    5    7 1
  10    6   10 1
  11    7    8 1
  12    7    9 2
  13    8   13 ar
  14    8   22 ar
  15   10   32 1
  16   10   33 1
  17   11   14 1
  18   11   34 1
  19   13   19 ar
  20   13   35 1
  21   14   15 ar
  22   14   16 ar
  23   15   17 ar
  24   15   36 1
  25   16   23 ar
  26   16   37 1
  27   17   18 ar
  28   17   38 1
  29   18   23 ar
  30   18   24 1
  31   19   20 ar
  32   19   39 1
  33   20   21 ar
  34   20   40 1
  35   21   22 ar
  36   21   41 1
  37   22   31 1
  38   23   42 1
  39   24   25 1
  40   25   26 ar
  41   25   30 ar
  42   26   27 ar
  43   26   43 1
  44   27   28 ar
  45   27   44 1
  46   28   29 ar
  47   28   45 1
  48   29   30 ar
  49   29   46 1
  50   30   47 1

#	End of record

