#	Name: ASD01815616
#	Creating user name:	WinNT
#	Creation time:	15. 06. 2019 19:33

#	Modifying user name:	WinNT
#	Modification time:	15. 06. 2019 19:33

#	Program:	/corina/corina34_cracker 3.40 0067  02.08.2006

@<TRIPOS>MOLECULE
ASD01815616
  37   39    0    0    0
SMALL
NO_CHARGES


@<TRIPOS>ATOM
   1 C1             0.1029     1.4769     0.3858 C.ar    
   2 C2             0.0842     0.0897     0.3777 C.ar    
   3 C3             1.2530    -0.6297     0.2378 C.ar    
   4 C4             2.4693     0.0388     0.1021 C.ar    
   5 C5             2.4835     1.4435     0.1103 C.ar    
   6 C6             1.2934     2.1569     0.2531 C.ar    
   7 N7             3.6450    -0.6678    -0.0380 N.pl3   
   8 C8             4.8372    -0.0733    -0.1706 C.2     
   9 C9             4.9777     1.3000    -0.1771 C.2     
  10 C10            3.7765     2.1382    -0.0341 C.2     
  11 O11            3.8473     3.3547    -0.0341 O.2     
  12 C12            6.3046     1.9147    -0.3245 C.2     
  13 O13            7.2900     1.2126    -0.4420 O.2     
  14 O14            6.4288     3.2570    -0.3294 O.3     
  15 C15            3.5871    -2.1316    -0.0416 C.3     
  16 C16            3.4443    -2.6253    -1.4583 C.ar    
  17 C17            4.5637    -2.7674    -2.2565 C.ar    
  18 C18            4.4334    -3.2202    -3.5560 C.ar    
  19 C19            3.1822    -3.5310    -4.0577 C.ar    
  20 C20            2.0619    -3.3885    -3.2581 C.ar    
  21 C21            2.1941    -2.9411    -1.9573 C.ar    
  22 F22            1.2193    -1.9802     0.2326 F       
  23 C23            5.6539    -3.3747    -4.4263 C.3     
  24 F24            6.7922    -3.0017    -3.7036 F       
  25 F25            5.7737    -4.7091    -4.8290 F       
  26 F26            5.5289    -2.5566    -5.5543 F       
  27 Cl27           3.0176    -4.0991    -5.6898 Cl      
  28 H28           -0.8208     2.0263     0.4921 H       
  29 H29           -0.8554    -0.4325     0.4825 H       
  30 H30            1.3053     3.2368     0.2590 H       
  31 H31            5.7185    -0.6887    -0.2755 H       
  32 H32            7.3216     3.6149    -0.4290 H       
  33 H33            4.5031    -2.5325     0.3922 H       
  34 H34            2.7313    -2.4628     0.5466 H       
  35 H35            5.5404    -2.5244    -1.8648 H       
  36 H36            1.0848    -3.6307    -3.6493 H       
  37 H37            1.3198    -2.8298    -1.3331 H       
@<TRIPOS>BOND
   1    1    2 ar
   2    1    6 ar
   3    1   28 1
   4    2    3 ar
   5    2   29 1
   6    3    4 ar
   7    3   22 1
   8    4    5 ar
   9    4    7 1
  10    5    6 ar
  11    5   10 1
  12    6   30 1
  13    7    8 1
  14    7   15 1
  15    8    9 2
  16    8   31 1
  17    9   10 1
  18    9   12 1
  19   10   11 2
  20   12   13 2
  21   12   14 1
  22   14   32 1
  23   15   16 1
  24   15   33 1
  25   15   34 1
  26   16   17 ar
  27   16   21 ar
  28   17   18 ar
  29   17   35 1
  30   18   19 ar
  31   18   23 1
  32   19   20 ar
  33   19   27 1
  34   20   21 ar
  35   20   36 1
  36   21   37 1
  37   23   24 1
  38   23   25 1
  39   23   26 1

#	End of record

