#	Name: ASD01720121
#	Creating user name:	WinNT
#	Creation time:	15. 06. 2019 19:23

#	Modifying user name:	WinNT
#	Modification time:	15. 06. 2019 19:23

#	Program:	/corina/corina34_cracker 3.40 0067  02.08.2006

@<TRIPOS>MOLECULE
ASD01720121
  67   71    0    0    0
SMALL
NO_CHARGES


@<TRIPOS>ATOM
   1 C1            -0.0080     1.3666     0.0645 C.ar    
   2 C2             0.0072    -0.0012     0.0202 C.ar    
   3 C3             1.2273    -0.6753     0.0240 C.ar    
   4 N4             2.3746    -0.0119     0.0703 N.ar    
   5 C5             2.4088     1.3086     0.1142 C.ar    
   6 C6             1.2164     2.0496     0.1126 C.ar    
   7 O7             3.6004     1.9503     0.1612 O.3     
   8 C8             4.7755     1.1371     0.1604 C.3     
   9 C9             6.0151     2.0322     0.2168 C.3     
  10 C10            7.2732     1.1617     0.2160 C.3     
  11 C11            8.5124     2.0563     0.1465 C.3     
  12 C12            7.3174     0.3279     1.4981 C.3     
  13 C13            1.2504     3.5205     0.1609 C.2     
  14 O14            2.3173     4.1032     0.2024 O.2     
  15 N15            0.0993     4.2216     0.1589 N.am    
  16 C16            0.1331     5.6854     0.2069 C.3     
  17 C17           -1.1488     6.2458    -0.4124 C.3     
  18 C18           -1.1135     7.7745    -0.3623 C.3     
  19 C19            0.2399     6.1457     1.6621 C.3     
  20 C20            0.2752     7.6744     1.7123 C.3     
  21 C21           -1.0067     8.2348     1.0929 C.3     
  22 C22           -0.9705     5.6375     2.4479 C.3     
  23 C23           -2.3593     5.7376     0.3733 C.3     
  24 C24           -2.2172     7.7266     1.8787 C.3     
  25 C25           -2.2525     6.1978     1.8285 C.3     
  26 O26           -0.9737     9.6626     1.1397 O.3     
  27 N27            1.2416    -2.0593    -0.0209 N.pl3   
  28 C28            2.4590    -2.7442    -0.1420 C.2     
  29 N29            2.6287    -4.0684    -0.0755 N.2     
  30 C30            3.9056    -4.3383    -0.2335 C.2     
  31 O31            4.5733    -3.1831    -0.4042 O.3     
  32 C32            3.6782    -2.1814    -0.3541 C.2     
  33 C33            4.5057    -5.6826    -0.2242 C.2     
  34 O34            5.8347    -5.8287    -0.3979 O.3     
  35 O35            3.8031    -6.6606    -0.0601 O.2     
  36 H36           -0.9422     1.9085     0.0579 H       
  37 H37           -0.9195    -0.5545    -0.0171 H       
  38 H38            4.7626     0.4792     1.0294 H       
  39 H39            4.8016     0.5372    -0.7492 H       
  40 H40            6.0279     2.6902    -0.6521 H       
  41 H41            5.9889     2.6322     1.1265 H       
  42 H42            7.2553     0.4980    -0.6485 H       
  43 H43            8.5304     2.7200     1.0110 H       
  44 H44            9.4088     1.4361     0.1459 H       
  45 H45            8.4810     2.6503    -0.7669 H       
  46 H46            6.4345    -0.3094     1.5476 H       
  47 H47            8.2137    -0.2923     1.4975 H       
  48 H48            7.3353     0.9916     2.3626 H       
  49 H49           -0.7515     3.7570     0.1258 H       
  50 H50            0.9955     6.0475    -0.3529 H       
  51 H51           -1.2249     5.9179    -1.4492 H       
  52 H52           -0.2511     8.1366    -0.9221 H       
  53 H53           -2.0268     8.1737    -0.8036 H       
  54 H54            1.1532     5.7465     2.1034 H       
  55 H55            0.3513     8.0023     2.7490 H       
  56 H56            1.1376     8.0365     1.1525 H       
  57 H57           -0.9957     4.5483     2.4122 H       
  58 H58           -0.8945     5.9654     3.4846 H       
  59 H59           -3.2725     6.1367    -0.0679 H       
  60 H60           -2.3844     4.6484     0.3376 H       
  61 H61           -2.1411     8.0544     2.9154 H       
  62 H62           -3.1304     8.1258     1.4374 H       
  63 H63           -3.1148     5.8357     2.3883 H       
  64 H64           -1.7569    10.0867     0.7631 H       
  65 H65            0.4094    -2.5548     0.0315 H       
  66 H66            3.8884    -1.1274    -0.4605 H       
  67 H67            6.1826    -6.7309    -0.3842 H       
@<TRIPOS>BOND
   1    1    2 ar
   2    1    6 ar
   3    1   36 1
   4    2    3 ar
   5    2   37 1
   6    3    4 ar
   7    3   27 1
   8    4    5 ar
   9    5    6 ar
  10    5    7 1
  11    6   13 1
  12    7    8 1
  13    8    9 1
  14    8   38 1
  15    8   39 1
  16    9   10 1
  17    9   40 1
  18    9   41 1
  19   10   11 1
  20   10   12 1
  21   10   42 1
  22   11   43 1
  23   11   44 1
  24   11   45 1
  25   12   46 1
  26   12   47 1
  27   12   48 1
  28   13   14 2
  29   13   15 am
  30   15   16 1
  31   15   49 1
  32   16   17 1
  33   16   19 1
  34   16   50 1
  35   17   18 1
  36   17   23 1
  37   17   51 1
  38   18   21 1
  39   18   52 1
  40   18   53 1
  41   19   20 1
  42   19   22 1
  43   19   54 1
  44   20   21 1
  45   20   55 1
  46   20   56 1
  47   21   24 1
  48   21   26 1
  49   22   25 1
  50   22   57 1
  51   22   58 1
  52   23   25 1
  53   23   59 1
  54   23   60 1
  55   24   25 1
  56   24   61 1
  57   24   62 1
  58   25   63 1
  59   26   64 1
  60   27   28 1
  61   27   65 1
  62   28   29 1
  63   28   32 2
  64   29   30 2
  65   30   31 1
  66   30   33 1
  67   31   32 1
  68   32   66 1
  69   33   34 1
  70   33   35 2
  71   34   67 1

#	End of record

