#	Name: ASD08150314
#	Creating user name:	WinNT
#	Creation time:	15. 06. 2019 21:15

#	Modifying user name:	WinNT
#	Modification time:	15. 06. 2019 21:15

#	Program:	/corina/corina34_cracker 3.40 0067  02.08.2006

@<TRIPOS>MOLECULE
ASD08150314
  72   78    0    0    0
SMALL
NO_CHARGES


@<TRIPOS>ATOM
   1 N1            -0.0614     1.2585     0.1187 N.am    
   2 C2            -0.0170    -0.0391    -0.2406 C.2     
   3 C3             1.2048    -0.7416    -0.2658 C.2     
   4 C4             2.3602    -0.1152     0.0736 C.2     
   5 C5             2.3174     1.2502     0.4518 C.ar    
   6 C6             3.4864     1.9471     0.8125 C.ar    
   7 N7             3.4440     3.2067     1.1605 N.ar    
   8 C8             2.2981     3.9035     1.1948 C.ar    
   9 C9             1.0729     3.2826     0.8476 C.ar    
  10 C10            1.0845     1.9203     0.4668 C.ar    
  11 C11           -0.1160     4.0175     0.8870 C.ar    
  12 C12           -0.0824     5.3496     1.2666 C.ar    
  13 C13            1.1339     5.9572     1.6088 C.ar    
  14 C14            2.2984     5.2556     1.5753 C.ar    
  15 O15           -1.0475    -0.6136    -0.5478 O.2     
  16 C16           -1.3387     6.1365     1.3107 C.ar    
  17 C17           -1.2854     1.9348     0.1306 C.ar    
  18 C18           -1.8695     2.2911     1.3410 C.ar    
  19 C19           -3.0751     2.9579     1.3560 C.ar    
  20 C20           -3.7104     3.2758     0.1539 C.ar    
  21 C21           -3.1214     2.9168    -1.0596 C.ar    
  22 C22           -1.9126     2.2546    -1.0679 C.ar    
  23 C23           -5.0036     3.9904     0.1664 C.2     
  24 C24           -2.5359     5.5850     0.8272 C.ar    
  25 C25           -5.0964     5.0999    -0.5269 C.2     
  26 C26           -6.3445     5.9357    -0.5890 C.3     
  27 N27           -7.4586     5.1838     0.0060 N.am    
  28 C28           -7.1909     4.4562     1.2586 C.3     
  29 C29           -6.1242     3.3953     0.9663 C.3     
  30 N30           -3.6593     6.2561     0.8539 N.ar    
  31 C31           -3.7231     7.4993     1.3424 C.ar    
  32 C32           -2.5567     8.1256     1.8495 C.ar    
  33 C33           -1.3407     7.4210     1.8352 C.ar    
  34 C34           -8.6764     5.1613    -0.5711 C.2     
  35 O35           -9.5785     4.5328    -0.0592 O.2     
  36 C36           -8.9170     5.9171    -1.8525 C.3     
  37 C37          -10.3705     5.7273    -2.2912 C.3     
  38 C38           -4.9391     8.2045     1.3622 C.ar    
  39 C39           -4.9796     9.4690     1.8639 C.ar    
  40 C40           -3.8318    10.0828     2.3615 C.ar    
  41 C41           -2.6358     9.4326     2.3596 C.ar    
  42 C42           -3.8038     3.2575    -2.3593 C.3     
  43 F43           -3.0267     2.7987    -3.4283 F       
  44 F44           -5.0612     2.6455    -2.4002 F       
  45 F45           -3.9571     4.6448    -2.4559 F       
  46 H46            1.2217    -1.7818    -0.5558 H       
  47 H47            3.2986    -0.6495     0.0561 H       
  48 H48            4.4354     1.4317     0.8018 H       
  49 H49           -1.0533     3.5504     0.6232 H       
  50 H50            1.1463     6.9964     1.9027 H       
  51 H51            3.2263     5.7395     1.8422 H       
  52 H52           -1.3778     2.0445     2.2704 H       
  53 H53           -3.5285     3.2340     2.2966 H       
  54 H54           -1.4544     1.9802    -2.0066 H       
  55 H55           -2.5296     4.5834     0.4234 H       
  56 H56           -4.2309     5.4304    -1.0820 H       
  57 H57           -6.1915     6.8608    -0.0332 H       
  58 H58           -6.5760     6.1682    -1.6284 H       
  59 H59           -6.8281     5.1496     2.0173 H       
  60 H60           -8.1039     3.9729     1.6064 H       
  61 H61           -6.5755     2.5740     0.4098 H       
  62 H62           -5.7273     3.0144     1.9073 H       
  63 H63           -0.4338     7.8686     2.2141 H       
  64 H64           -8.7216     6.9772    -1.6912 H       
  65 H65           -8.2511     5.5387    -2.6280 H       
  66 H66          -10.5445     6.2740    -3.2180 H       
  67 H67          -10.5659     4.6672    -2.4525 H       
  68 H68          -11.0364     6.1057    -1.5157 H       
  69 H69           -5.8383     7.7444     0.9800 H       
  70 H70           -5.9168    10.0056     1.8764 H       
  71 H71           -3.8918    11.0873     2.7537 H       
  72 H72           -1.7529     9.9184     2.7479 H       
@<TRIPOS>BOND
   1    1    2 am
   2    1   10 1
   3    1   17 1
   4    2    3 1
   5    2   15 2
   6    3    4 2
   7    3   46 1
   8    4    5 1
   9    4   47 1
  10    5    6 ar
  11    5   10 ar
  12    6    7 ar
  13    6   48 1
  14    7    8 ar
  15    8    9 ar
  16    8   14 ar
  17    9   10 ar
  18    9   11 ar
  19   11   12 ar
  20   11   49 1
  21   12   13 ar
  22   12   16 1
  23   13   14 ar
  24   13   50 1
  25   14   51 1
  26   16   24 ar
  27   16   33 ar
  28   17   18 ar
  29   17   22 ar
  30   18   19 ar
  31   18   52 1
  32   19   20 ar
  33   19   53 1
  34   20   21 ar
  35   20   23 1
  36   21   22 ar
  37   21   42 1
  38   22   54 1
  39   23   25 2
  40   23   29 1
  41   24   30 ar
  42   24   55 1
  43   25   26 1
  44   25   56 1
  45   26   27 1
  46   26   57 1
  47   26   58 1
  48   27   28 1
  49   27   34 am
  50   28   29 1
  51   28   59 1
  52   28   60 1
  53   29   61 1
  54   29   62 1
  55   30   31 ar
  56   31   32 ar
  57   31   38 ar
  58   32   33 ar
  59   32   41 ar
  60   33   63 1
  61   34   35 2
  62   34   36 1
  63   36   37 1
  64   36   64 1
  65   36   65 1
  66   37   66 1
  67   37   67 1
  68   37   68 1
  69   38   39 ar
  70   38   69 1
  71   39   40 ar
  72   39   70 1
  73   40   41 ar
  74   40   71 1
  75   41   72 1
  76   42   43 1
  77   42   44 1
  78   42   45 1

#	End of record

