#	Name: ASD01230606
#	Creating user name:	WinNT
#	Creation time:	15. 06. 2019 19:14

#	Modifying user name:	WinNT
#	Modification time:	15. 06. 2019 19:14

#	Program:	/corina/corina34_cracker 3.40 0067  02.08.2006

@<TRIPOS>MOLECULE
ASD01230606
  39   42    0    0    0
SMALL
NO_CHARGES


@<TRIPOS>ATOM
   1 S1            -0.0204     1.6504     0.0111 S.o2    
   2 N2             0.0021    -0.0041     0.0020 N.am    
   3 C3             1.0227    -0.6872    -0.4556 C.2     
   4 N4             2.1688    -0.1517    -0.9712 N.pl3   
   5 C5             2.3935     1.2854    -1.1472 C.3     
   6 C6             1.7501     2.0749    -0.0035 C.3     
   7 C7             0.8949    -2.1592    -0.3950 C.2     
   8 C8             1.9459    -2.9422    -0.8230 C.2     
   9 C9             3.1043    -2.3191    -1.3056 C.2     
  10 C10            3.1906    -0.9787    -1.3650 C.2     
  11 C11           -0.3448    -2.7834     0.1177 C.ar    
  12 O12           -0.6346     2.0064    -1.2198 O.2     
  13 O13           -0.6110     1.9931     1.2573 O.2     
  14 C14           -0.3237    -3.5398     1.2960 C.ar    
  15 C15           -1.5054    -4.1034     1.7358 C.ar    
  16 C16           -2.6715    -3.9022     0.9980 C.ar    
  17 N17           -2.6562    -3.1796    -0.1156 N.ar    
  18 C18           -1.5527    -2.6216    -0.5637 C.ar    
  19 C19           -3.9443    -4.5034     1.4627 C.ar    
  20 C20           -3.9745    -5.2599     2.6334 C.ar    
  21 C21           -5.1170    -4.3097     0.7340 C.ar    
  22 C22           -6.2990    -4.8714     1.1718 C.ar    
  23 C23           -6.3218    -5.6255     2.3313 C.ar    
  24 C24           -5.1624    -5.8167     3.0614 C.ar    
  25 H25            3.4654     1.4826    -1.1616 H       
  26 H26            1.9572     1.6042    -2.0939 H       
  27 H27            1.8743     3.1443    -0.1744 H       
  28 H28            2.2074     1.7939     0.9452 H       
  29 H29            1.8775    -4.0194    -0.7864 H       
  30 H30            3.9375    -2.9226    -1.6341 H       
  31 H31            4.1018    -0.5346    -1.7378 H       
  32 H32            0.5944    -3.6794     1.8472 H       
  33 H33           -1.5261    -4.6931     2.6403 H       
  34 H34           -1.5793    -2.0402    -1.4735 H       
  35 H35           -3.0700    -5.4102     3.2040 H       
  36 H36           -5.1004    -3.7208    -0.1713 H       
  37 H37           -7.2080    -4.7217     0.6082 H       
  38 H38           -7.2492    -6.0628     2.6703 H       
  39 H39           -5.1862    -6.4066     3.9657 H       
@<TRIPOS>BOND
   1    1    2 am
   2    1    6 1
   3    1   12 2
   4    1   13 2
   5    2    3 2
   6    3    4 1
   7    3    7 1
   8    4    5 1
   9    4   10 1
  10    5    6 1
  11    5   25 1
  12    5   26 1
  13    6   27 1
  14    6   28 1
  15    7    8 2
  16    7   11 1
  17    8    9 1
  18    8   29 1
  19    9   10 2
  20    9   30 1
  21   10   31 1
  22   11   14 ar
  23   11   18 ar
  24   14   15 ar
  25   14   32 1
  26   15   16 ar
  27   15   33 1
  28   16   17 ar
  29   16   19 1
  30   17   18 ar
  31   18   34 1
  32   19   21 ar
  33   19   20 ar
  34   20   24 ar
  35   20   35 1
  36   21   22 ar
  37   21   36 1
  38   22   23 ar
  39   22   37 1
  40   23   24 ar
  41   23   38 1
  42   24   39 1

#	End of record

