#	Name: ASD06660002
#	Creating user name:	WinNT
#	Creation time:	15. 06. 2019 21:07

#	Modifying user name:	WinNT
#	Modification time:	15. 06. 2019 21:07

#	Program:	/corina/corina34_cracker 3.40 0067  02.08.2006

@<TRIPOS>MOLECULE
ASD06660002
  67   70    0    0    0
SMALL
NO_CHARGES


@<TRIPOS>ATOM
   1 C1            -1.9784     1.7445     0.1617 C.2     
   2 C2            -1.6483     0.4786    -0.5862 C.3     
   3 C3            -2.3531     0.4900    -1.9442 C.3     
   4 O4            -1.0945     2.4992     0.4919 O.2     
   5 O5            -3.2550     2.0364     0.4563 O.3     
   6 C6            -2.1389    -0.8334    -2.6324 C.ar    
   7 C7            -2.9676    -1.9026    -2.3451 C.ar    
   8 C8            -2.7740    -3.1168    -2.9740 C.ar    
   9 C9            -1.7455    -3.2634    -3.8962 C.ar    
  10 C10           -0.9149    -2.1874    -4.1824 C.ar    
  11 C11           -1.1176    -0.9743    -3.5541 C.ar    
  12 N12           -1.5467    -4.4901    -4.5337 N.3     
  13 C13           -2.8340    -5.1169    -4.8872 C.3     
  14 C14           -2.2416    -6.4587    -4.4344 C.3     
  15 C15           -1.3538    -5.5719    -3.5501 C.3     
  16 C16           -3.2171    -7.3433    -3.6555 C.3     
  17 N17           -2.5889    -8.6377    -3.3794 N.pl3   
  18 C18           -3.2875    -9.6139    -2.6786 C.ar    
  19 C19           -4.5831    -9.3552    -2.2422 C.ar    
  20 C20           -5.2666   -10.3355    -1.5461 C.ar    
  21 C21           -4.6292   -11.5464    -1.3087 C.ar    
  22 C22           -3.3423   -11.7350    -1.7706 C.ar    
  23 N23           -2.7161   -10.7835    -2.4370 N.ar    
  24 C24            0.6031     0.0302     0.2307 C.2     
  25 C25            2.0509    -0.1570     0.0005 C.ar    
  26 C26            2.5642    -1.4345    -0.2324 C.ar    
  27 C27            3.9157    -1.6027    -0.4470 C.ar    
  28 C28            4.7640    -0.5076    -0.4314 C.ar    
  29 C29            4.2607     0.7619    -0.2010 C.ar    
  30 C30            2.9098     0.9434     0.0092 C.ar    
  31 O31            0.1364    -0.1447     1.3394 O.2     
  32 N32           -0.1997     0.3947    -0.7886 N.am    
  33 C33            2.3629     2.3262     0.2537 C.3     
  34 C34            1.6429    -2.6269    -0.2487 C.3     
  35 C35            1.0372    -2.7844    -1.6448 C.3     
  36 Cl36           6.4647    -0.7275    -0.7013 Cl      
  37 H37           -1.9850    -0.3827    -0.0093 H       
  38 H38           -3.4206     0.6549    -1.7980 H       
  39 H39           -1.9428     1.2904    -2.5599 H       
  40 H40           -3.4174     2.8595     0.9373 H       
  41 H41           -3.7668    -1.7880    -1.6278 H       
  42 H42           -3.4213    -3.9514    -2.7489 H       
  43 H43           -0.1144    -2.2980    -4.8989 H       
  44 H44           -0.4752    -0.1360    -3.7797 H       
  45 H45           -3.6658    -4.7788    -4.2691 H       
  46 H46           -3.0574    -5.0785    -5.9533 H       
  47 H47           -1.7010    -6.9940    -5.2150 H       
  48 H48           -0.3228    -5.9191    -3.4830 H       
  49 H49           -1.7906    -5.3552    -2.5752 H       
  50 H50           -3.4766    -6.8574    -2.7149 H       
  51 H51           -4.1201    -7.4964    -4.2465 H       
  52 H52           -1.6855    -8.8134    -3.6856 H       
  53 H53           -5.0485    -8.4018    -2.4440 H       
  54 H54           -6.2731   -10.1631    -1.1947 H       
  55 H55           -5.1353   -12.3323    -0.7677 H       
  56 H56           -2.8430   -12.6752    -1.5882 H       
  57 H57            4.3139    -2.5903    -0.6272 H       
  58 H58            4.9269     1.6119    -0.1897 H       
  59 H59            0.1815     0.6014    -1.6563 H       
  60 H60            2.3760     2.5384     1.3227 H       
  61 H61            2.9782     3.0581    -0.2696 H       
  62 H62            1.3388     2.3824    -0.1154 H       
  63 H63            2.2061    -3.5247     0.0065 H       
  64 H64            0.8450    -2.4795     0.4791 H       
  65 H65            0.2975    -3.5850    -1.6317 H       
  66 H66            0.5575    -1.8513    -1.9401 H       
  67 H67            1.8250    -3.0293    -2.3572 H       
@<TRIPOS>BOND
   1    1    2 1
   2    1    4 2
   3    1    5 1
   4    2    3 1
   5    2   32 1
   6    2   37 1
   7    3    6 1
   8    3   38 1
   9    3   39 1
  10    5   40 1
  11    6    7 ar
  12    6   11 ar
  13    7    8 ar
  14    7   41 1
  15    8    9 ar
  16    8   42 1
  17    9   10 ar
  18    9   12 1
  19   10   11 ar
  20   10   43 1
  21   11   44 1
  22   12   13 1
  23   12   15 1
  24   13   14 1
  25   13   45 1
  26   13   46 1
  27   14   15 1
  28   14   16 1
  29   14   47 1
  30   15   48 1
  31   15   49 1
  32   16   17 1
  33   16   50 1
  34   16   51 1
  35   17   18 1
  36   17   52 1
  37   18   19 ar
  38   18   23 ar
  39   19   20 ar
  40   19   53 1
  41   20   21 ar
  42   20   54 1
  43   21   22 ar
  44   21   55 1
  45   22   23 ar
  46   22   56 1
  47   24   25 1
  48   24   31 2
  49   24   32 am
  50   25   26 ar
  51   25   30 ar
  52   26   27 ar
  53   26   34 1
  54   27   28 ar
  55   27   57 1
  56   28   29 ar
  57   28   36 1
  58   29   30 ar
  59   29   58 1
  60   30   33 1
  61   32   59 1
  62   33   60 1
  63   33   61 1
  64   33   62 1
  65   34   35 1
  66   34   63 1
  67   34   64 1
  68   35   65 1
  69   35   66 1
  70   35   67 1

#	End of record

