#	Name: ASD07301030
#	Creating user name:	WinNT
#	Creation time:	15. 06. 2019 21:10

#	Modifying user name:	WinNT
#	Modification time:	15. 06. 2019 21:10

#	Program:	/corina/corina34_cracker 3.40 0067  02.08.2006

@<TRIPOS>MOLECULE
ASD07301030
  34   36    0    0    0
SMALL
NO_CHARGES


@<TRIPOS>ATOM
   1 C1            -0.0178     1.4649     0.0101 C.2     
   2 C2             0.0021    -0.0041     0.0020 C.2     
   3 C3             1.2770    -0.6367    -0.0136 C.2     
   4 C4             2.3784     0.1588    -0.0198 C.2     
   5 N5             2.2582     1.5097    -0.0114 N.pl3   
   6 N6             1.1291     2.1160     0.0026 N.2     
   7 C7            -1.2972     2.1982     0.0202 C.2     
   8 O8            -2.3476     1.5874     0.0218 O.2     
   9 O9            -1.3014     3.5458     0.0275 O.3     
  10 O10            6.8673     4.5297    -0.3010 O.3     
  11 C11            6.7909     4.8453    -1.7036 C.3     
  12 O12            6.0003     3.7746    -2.2528 O.3     
  13 C13            5.2067     3.3447    -1.2279 C.ar    
  14 C14            5.7403     3.8094    -0.0271 C.ar    
  15 C15            4.0523     2.5821    -1.2214 C.ar    
  16 C16            3.4258     2.2802    -0.0184 C.ar    
  17 C17            3.9600     2.7451     1.1788 C.ar    
  18 C18            5.1140     3.5073     1.1718 C.ar    
  19 F19            3.3511     2.4524     2.3488 F       
  20 F20            6.1537     6.0757    -1.8966 F       
  21 F21            8.0677     4.8565    -2.2752 F       
  22 O22           -1.0316    -0.6549     0.0088 O.2     
  23 O23            1.3889    -1.9916    -0.0215 O.3     
  24 C24            2.7111    -2.5333    -0.0370 C.3     
  25 C25           -2.5972     4.2009     0.0372 C.3     
  26 H26            3.3608    -0.2897    -0.0312 H       
  27 H27            3.6381     2.2215    -2.1513 H       
  28 H28            5.5280     3.8674     2.1020 H       
  29 H29            2.6578    -3.6220    -0.0420 H       
  30 H30            3.2335    -2.1911    -0.9304 H       
  31 H31            3.2508    -2.2000     0.8494 H       
  32 H32           -3.1575     3.9111    -0.8517 H       
  33 H33           -3.1490     3.9014     0.9282 H       
  34 H34           -2.4577     5.2819     0.0424 H       
@<TRIPOS>BOND
   1    1    2 1
   2    1    6 2
   3    1    7 1
   4    2    3 1
   5    2   22 2
   6    3    4 2
   7    3   23 1
   8    4    5 1
   9    4   26 1
  10    5    6 1
  11    5   16 1
  12    7    8 2
  13    7    9 1
  14    9   25 1
  15   10   11 1
  16   10   14 1
  17   11   12 1
  18   11   20 1
  19   11   21 1
  20   12   13 1
  21   13   14 ar
  22   13   15 ar
  23   14   18 ar
  24   15   16 ar
  25   15   27 1
  26   16   17 ar
  27   17   18 ar
  28   17   19 1
  29   18   28 1
  30   23   24 1
  31   24   29 1
  32   24   30 1
  33   24   31 1
  34   25   32 1
  35   25   33 1
  36   25   34 1

#	End of record

