#	Name: ASD01915698
#	Creating user name:	WinNT
#	Creation time:	15. 06. 2019 20:05

#	Modifying user name:	WinNT
#	Modification time:	15. 06. 2019 20:05

#	Program:	/corina/corina34_cracker 3.40 0067  02.08.2006

@<TRIPOS>MOLECULE
ASD01915698
  37   39    0    0    0
SMALL
NO_CHARGES


@<TRIPOS>ATOM
   1 C1            -0.4106     1.7404     0.1048 C.ar    
   2 C2            -0.5434     0.3901     0.3735 C.ar    
   3 N3             0.4997    -0.3401     0.7068 N.ar    
   4 C4             1.7177     0.1814     0.7997 C.ar    
   5 C5             1.9311     1.5323     0.5450 C.ar    
   6 C6             0.8474     2.3312     0.1896 C.ar    
   7 C7            -1.9026    -0.2545     0.2838 C.3     
   8 O8             1.0132     3.6537    -0.0675 O.3     
   9 C9             2.2649     4.1723     0.0388 C.ar    
  10 C10            3.1956     3.9766    -0.9711 C.ar    
  11 N11            4.4111     4.4775    -0.8719 N.ar    
  12 C12            4.7900     5.1781     0.1788 C.ar    
  13 C13            3.9184     5.4153     1.2256 C.ar    
  14 C14            2.6294     4.9120     1.1597 C.ar    
  15 C15            2.8593    -0.6833     1.1786 C.2     
  16 N16            2.6594    -1.9928     1.4271 N.am    
  17 O17            3.9759    -0.2120     1.2652 O.2     
  18 C18            3.7460    -2.8278     1.6802 C.ar    
  19 C19            3.5448    -4.1962     1.8203 C.ar    
  20 C20            4.6322    -5.0145     2.0715 C.ar    
  21 C21            5.8892    -4.4328     2.1742 C.ar    
  22 C22            6.0155    -3.0645     2.0236 C.ar    
  23 N23            4.9607    -2.3111     1.7795 N.ar    
  24 Cl24           7.2867    -5.4135     2.4888 Cl      
  25 H25           -1.2726     2.3291    -0.1720 H       
  26 H26            2.9220     1.9549     0.6217 H       
  27 H27           -2.0636    -0.6235    -0.7291 H       
  28 H28           -1.9575    -1.0860     0.9864 H       
  29 H29           -2.6699     0.4798     0.5292 H       
  30 H30            2.9218     3.4079    -1.8474 H       
  31 H31            5.7947     5.5717     0.2226 H       
  32 H32            4.2375     5.9896     2.0827 H       
  33 H33            1.9274     5.0822     1.9626 H       
  34 H34            1.7591    -2.3541     1.4299 H       
  35 H35            2.5530    -4.6150     1.7347 H       
  36 H36            4.5062    -6.0810     2.1853 H       
  37 H37            6.9907    -2.6072     2.1029 H       
@<TRIPOS>BOND
   1    1    2 ar
   2    1    6 ar
   3    1   25 1
   4    2    3 ar
   5    2    7 1
   6    3    4 ar
   7    4    5 ar
   8    4   15 1
   9    5    6 ar
  10    5   26 1
  11    6    8 1
  12    7   27 1
  13    7   28 1
  14    7   29 1
  15    8    9 1
  16    9   10 ar
  17    9   14 ar
  18   10   11 ar
  19   10   30 1
  20   11   12 ar
  21   12   13 ar
  22   12   31 1
  23   13   14 ar
  24   13   32 1
  25   14   33 1
  26   15   16 am
  27   15   17 2
  28   16   18 1
  29   16   34 1
  30   18   19 ar
  31   18   23 ar
  32   19   20 ar
  33   19   35 1
  34   20   21 ar
  35   20   36 1
  36   21   22 ar
  37   21   24 1
  38   22   23 ar
  39   22   37 1

#	End of record

