#	Name: ASD03240053
#	Creating user name:	WinNT
#	Creation time:	15. 06. 2019 20:34

#	Modifying user name:	WinNT
#	Modification time:	15. 06. 2019 20:34

#	Program:	/corina/corina34_cracker 3.40 0067  02.08.2006

@<TRIPOS>MOLECULE
ASD03240053
  67   73    0    0    0
SMALL
NO_CHARGES


@<TRIPOS>ATOM
   1 C1            -0.0169     1.3921     0.0097 C.ar    
   2 C2             0.0021    -0.0041     0.0020 C.ar    
   3 C3             1.1939     2.0911     0.0019 C.ar    
   4 C4             2.3787     1.3586    -0.0134 C.ar    
   5 C5             2.3111    -0.0448    -0.0202 C.ar    
   6 N6             1.1390    -0.6657    -0.0120 N.ar    
   7 C7             3.5611    -0.8389    -0.0364 C.ar    
   8 C8             3.6907     2.0492    -0.0227 C.ar    
   9 C9             3.9399     3.0655    -0.9436 C.ar    
  10 C10            5.1629     3.7048    -0.9476 C.ar    
  11 C11            6.1407     3.3387    -0.0401 C.ar    
  12 C12            5.8992     2.3306     0.8758 C.ar    
  13 C13            4.6777     1.6885     0.8932 C.ar    
  14 C14            3.6289    -2.0521     0.6483 C.ar    
  15 C15            4.7964    -2.7874     0.6295 C.ar    
  16 C16            5.8984    -2.3232    -0.0663 C.ar    
  17 C17            5.8374    -1.1204    -0.7471 C.ar    
  18 C18            4.6735    -0.3793    -0.7413 C.ar    
  19 C19            7.1705    -3.1310    -0.0823 C.3     
  20 N20            7.1476    -4.0580    -1.2217 N.3     
  21 C21            8.4590    -4.6910    -1.4115 C.3     
  22 C22            8.4396    -5.5347    -2.6881 C.3     
  23 C23            7.3485    -6.6027    -2.5718 C.3     
  24 C24            6.0005    -5.9192    -2.3263 C.3     
  25 C25            6.0905    -5.0644    -1.0602 C.3     
  26 C26           -1.3030     2.1231     0.0198 C.2     
  27 N27            7.2861    -7.3762    -3.8143 N.pl3   
  28 C28            7.4847    -8.7364    -3.9422 C.ar    
  29 C29            7.3262    -9.0247    -5.3082 C.ar    
  30 N30            7.0451    -7.8509    -5.9301 N.2     
  31 C31            7.0160    -6.8884    -5.0551 C.2     
  32 C32            7.7816    -9.7583    -3.0505 C.ar    
  33 C33            7.9186   -11.0497    -3.5129 C.ar    
  34 C34            7.7624   -11.3338    -4.8623 C.ar    
  35 C35            7.4695   -10.3414    -5.7540 C.ar    
  36 N36           -1.4605     3.4302     0.0272 N.2     
  37 N37           -2.7085     3.7326     0.0345 N.2     
  38 N38           -3.4298     2.6643     0.0323 N.2     
  39 N39           -2.5430     1.5735     0.0172 N.pl3   
  40 H40           -0.9305    -0.5488     0.0080 H       
  41 H41            1.2102     3.1709     0.0072 H       
  42 H42            3.1774     3.3519    -1.6528 H       
  43 H43            5.3573     4.4921    -1.6609 H       
  44 H44            7.0964     3.8417    -0.0469 H       
  45 H45            6.6665     2.0485     1.5816 H       
  46 H46            4.4903     0.9016     1.6088 H       
  47 H47            2.7695    -2.4151     1.1924 H       
  48 H48            4.8501    -3.7269     1.1594 H       
  49 H49            6.7011    -0.7631    -1.2882 H       
  50 H50            4.6270     0.5593    -1.2734 H       
  51 H51            8.0251    -2.4610    -0.1761 H       
  52 H52            7.2530    -3.6974     0.8453 H       
  53 H53            9.2252    -3.9205    -1.4969 H       
  54 H54            8.6807    -5.3303    -0.5570 H       
  55 H55            8.2316    -4.8937    -3.5448 H       
  56 H56            9.4082    -6.0169    -2.8204 H       
  57 H57            7.5769    -7.2675    -1.7388 H       
  58 H58            5.7541    -5.2843    -3.1773 H       
  59 H59            5.2264    -6.6762    -2.2000 H       
  60 H60            6.3234    -5.7019    -0.2073 H       
  61 H61            5.1366    -4.5651    -0.8904 H       
  62 H62            6.8146    -5.8518    -5.2820 H       
  63 H63            7.9049    -9.5424    -1.9995 H       
  64 H64            8.1495   -11.8456    -2.8204 H       
  65 H65            7.8732   -12.3500    -5.2108 H       
  66 H66            7.3495   -10.5737    -6.8019 H       
  67 H67           -2.7694     0.6303     0.0121 H       
@<TRIPOS>BOND
   1    1    2 ar
   2    1    3 ar
   3    1   26 1
   4    2    6 ar
   5    2   40 1
   6    3    4 ar
   7    3   41 1
   8    4    5 ar
   9    4    8 1
  10    5    6 ar
  11    5    7 1
  12    7   14 ar
  13    7   18 ar
  14    8    9 ar
  15    8   13 ar
  16    9   10 ar
  17    9   42 1
  18   10   11 ar
  19   10   43 1
  20   11   12 ar
  21   11   44 1
  22   12   13 ar
  23   12   45 1
  24   13   46 1
  25   14   15 ar
  26   14   47 1
  27   15   16 ar
  28   15   48 1
  29   16   17 ar
  30   16   19 1
  31   17   18 ar
  32   17   49 1
  33   18   50 1
  34   19   20 1
  35   19   51 1
  36   19   52 1
  37   20   21 1
  38   20   25 1
  39   21   22 1
  40   21   53 1
  41   21   54 1
  42   22   23 1
  43   22   55 1
  44   22   56 1
  45   23   24 1
  46   23   27 1
  47   23   57 1
  48   24   25 1
  49   24   58 1
  50   24   59 1
  51   25   60 1
  52   25   61 1
  53   26   36 2
  54   26   39 1
  55   27   28 1
  56   27   31 1
  57   28   29 ar
  58   28   32 ar
  59   29   30 1
  60   29   35 ar
  61   30   31 2
  62   31   62 1
  63   32   33 ar
  64   32   63 1
  65   33   34 ar
  66   33   64 1
  67   34   35 ar
  68   34   65 1
  69   35   66 1
  70   36   37 1
  71   37   38 2
  72   38   39 1
  73   39   67 1

#	End of record

