#	Name: ASD09750006
#	Creating user name:	WinNT
#	Creation time:	15. 06. 2019 21:23

#	Modifying user name:	WinNT
#	Modification time:	15. 06. 2019 21:23

#	Program:	/corina/corina34_cracker 3.40 0067  02.08.2006

@<TRIPOS>MOLECULE
ASD09750006
  93   97    0    0    0
SMALL
NO_CHARGES


@<TRIPOS>ATOM
   1 C1            -0.0187     1.5258     0.0104 C.3     
   2 C2             0.0021    -0.0041     0.0020 C.3     
   3 N3             0.7106    -0.4894     1.1889 N.am    
   4 C4             1.2957    -1.7035     1.1750 C.2     
   5 O5             1.2354    -2.3960     0.1774 O.2     
   6 O6            -0.6875     1.9866     1.1861 O.3     
   7 C7             1.4167     2.0553    -0.0004 C.3     
   8 N8            -2.2556    -0.2060    -0.9884 N.am    
   9 C9            -1.4117    -0.5257     0.0127 C.2     
  10 O10           -1.7902    -1.2332     0.9222 O.2     
  11 C11            2.0093    -2.1922     2.3703 C.ar    
  12 C12            2.0846    -1.4056     3.5206 C.ar    
  13 N13            2.7212    -1.8410     4.5879 N.ar    
  14 C14            3.3081    -3.0298     4.6110 C.ar    
  15 C15            3.2726    -3.8680     3.4977 C.ar    
  16 C16            2.6170    -3.4573     2.3688 C.ar    
  17 N17            3.9658    -3.4442     5.7567 N.3     
  18 C18            3.8874    -2.4215     6.8076 C.3     
  19 C19            4.7438    -2.8486     8.0018 C.3     
  20 C20            4.2370    -4.1924     8.5326 C.3     
  21 C21            4.2836    -5.2278     7.4055 C.3     
  22 C22            3.4405    -4.7318     6.2286 C.3     
  23 C23            5.1270    -4.6543     9.6882 C.3     
  24 C24            4.5482    -5.9323    10.2985 C.3     
  25 C25            5.4382    -6.3941    11.4542 C.3     
  26 C26            4.8593    -7.6721    12.0645 C.3     
  27 C27            5.8137    -8.2028    13.1367 C.3     
  28 C28            5.2478    -9.5009    13.7211 C.3     
  29 N29            3.8823    -9.2478    14.2006 N.am    
  30 C30            2.9075    -8.6536    13.2756 C.3     
  31 C31            3.4996    -7.3650    12.6962 C.3     
  32 C32            3.5303    -9.5552    15.4647 C.2     
  33 O33            4.3441   -10.0457    16.2185 O.2     
  34 C34            2.1257    -9.2896    15.9416 C.3     
  35 C35            1.9936    -9.7199    17.3798 C.ar    
  36 C36            2.2623    -8.8203    18.3957 C.ar    
  37 C37            2.1429    -9.2090    19.7146 C.ar    
  38 C38            1.7511   -10.5104    20.0219 C.ar    
  39 C39            1.4818   -11.4124    18.9946 C.ar    
  40 C40            1.5988   -11.0113    17.6792 C.ar    
  41 C41            1.6216   -10.9342    21.4381 C.ar    
  42 C42            1.2297   -12.2356    21.7454 C.ar    
  43 C43            1.1108   -12.6244    23.0644 C.ar    
  44 C44            1.3794   -11.7248    24.0802 C.ar    
  45 C45            1.7683   -10.4316    23.7808 C.ar    
  46 C46            1.8968   -10.0340    22.4654 C.ar    
  47 H47           -0.5459     1.8868    -0.8726 H       
  48 H48            0.5123    -0.3556    -0.8948 H       
  49 H49            0.7587     0.0631     1.9847 H       
  50 H50           -0.2723     1.7023     2.0119 H       
  51 H51            1.9269     1.7038    -0.8972 H       
  52 H52            1.4019     3.1452     0.0056 H       
  53 H53            1.9439     1.6943     0.8826 H       
  54 H54           -1.9529     0.3598    -1.7158 H       
  55 H55           -3.1656    -0.5417    -0.9815 H       
  56 H56            1.6173    -0.4320     3.5354 H       
  57 H57            3.7547    -4.8340     3.5272 H       
  58 H58            2.5754    -4.0889     1.4937 H       
  59 H59            4.2546    -1.4719     6.4184 H       
  60 H60            2.8513    -2.3069     7.1262 H       
  61 H61            5.7825    -2.9500     7.6871 H       
  62 H62            4.6730    -2.0968     8.7879 H       
  63 H63            3.2110    -4.0819     8.8835 H       
  64 H64            5.3150    -5.3666     7.0813 H       
  65 H65            3.8840    -6.1758     7.7654 H       
  66 H66            2.4065    -4.6064     6.5499 H       
  67 H67            3.4832    -5.4601     5.4188 H       
  68 H68            6.1322    -4.8523     9.3160 H       
  69 H69            5.1683    -3.8747    10.4490 H       
  70 H70            3.5430    -5.7342    10.6707 H       
  71 H71            4.5069    -6.7118     9.5378 H       
  72 H72            6.4433    -6.5921    11.0819 H       
  73 H73            5.4795    -5.6146    12.2149 H       
  74 H74            4.7357    -8.4234    11.2844 H       
  75 H75            6.7888    -8.3992    12.6908 H       
  76 H76            5.9183    -7.4621    13.9295 H       
  77 H77            5.2274   -10.2706    12.9496 H       
  78 H78            5.8718    -9.8300    14.5521 H       
  79 H79            2.6963    -9.3542    12.4678 H       
  80 H80            1.9873    -8.4237    13.8127 H       
  81 H81            3.6260    -6.6322    13.4931 H       
  82 H82            2.8276    -6.9652    11.9368 H       
  83 H83            1.9096    -8.2243    15.8598 H       
  84 H84            1.4213    -9.8514    15.3282 H       
  85 H85            2.5662    -7.8120    18.1563 H       
  86 H86            2.3532    -8.5060    20.5070 H       
  87 H87            1.1777   -12.4223    19.2273 H       
  88 H88            1.3903   -11.7096    16.8822 H       
  89 H89            1.0191   -12.9386    20.9531 H       
  90 H90            0.8072   -13.6329    23.3037 H       
  91 H91            1.2847   -12.0332    25.1109 H       
  92 H92            1.9764    -9.7332    24.5778 H       
  93 H93            2.2009    -9.0241    22.2327 H       
@<TRIPOS>BOND
   1    1    2 1
   2    1    7 1
   3    1    6 1
   4    1   47 1
   5    2    3 1
   6    2    9 1
   7    2   48 1
   8    3    4 am
   9    3   49 1
  10    4    5 2
  11    4   11 1
  12    6   50 1
  13    7   51 1
  14    7   52 1
  15    7   53 1
  16    8    9 am
  17    8   54 1
  18    8   55 1
  19    9   10 2
  20   11   12 ar
  21   11   16 ar
  22   12   13 ar
  23   12   56 1
  24   13   14 ar
  25   14   15 ar
  26   14   17 1
  27   15   16 ar
  28   15   57 1
  29   16   58 1
  30   17   18 1
  31   17   22 1
  32   18   19 1
  33   18   59 1
  34   18   60 1
  35   19   20 1
  36   19   61 1
  37   19   62 1
  38   20   21 1
  39   20   23 1
  40   20   63 1
  41   21   22 1
  42   21   64 1
  43   21   65 1
  44   22   66 1
  45   22   67 1
  46   23   24 1
  47   23   68 1
  48   23   69 1
  49   24   25 1
  50   24   70 1
  51   24   71 1
  52   25   26 1
  53   25   72 1
  54   25   73 1
  55   26   27 1
  56   26   31 1
  57   26   74 1
  58   27   28 1
  59   27   75 1
  60   27   76 1
  61   28   29 1
  62   28   77 1
  63   28   78 1
  64   29   30 1
  65   29   32 am
  66   30   31 1
  67   30   79 1
  68   30   80 1
  69   31   81 1
  70   31   82 1
  71   32   33 2
  72   32   34 1
  73   34   35 1
  74   34   83 1
  75   34   84 1
  76   35   36 ar
  77   35   40 ar
  78   36   37 ar
  79   36   85 1
  80   37   38 ar
  81   37   86 1
  82   38   39 ar
  83   38   41 1
  84   39   40 ar
  85   39   87 1
  86   40   88 1
  87   41   42 ar
  88   41   46 ar
  89   42   43 ar
  90   42   89 1
  91   43   44 ar
  92   43   90 1
  93   44   45 ar
  94   44   91 1
  95   45   46 ar
  96   45   92 1
  97   46   93 1

#	End of record

