#	Name: ASD01810783
#	Creating user name:	WinNT
#	Creation time:	15. 06. 2019 19:25

#	Modifying user name:	WinNT
#	Modification time:	15. 06. 2019 19:25

#	Program:	/corina/corina34_cracker 3.40 0067  02.08.2006

@<TRIPOS>MOLECULE
ASD01810783
  28   29    0    0    0
SMALL
NO_CHARGES


@<TRIPOS>ATOM
   1 C1            -0.0098     1.4717     0.0871 C.2     
   2 C2             0.0060    -0.0047     0.0394 C.ar    
   3 C3             1.2134    -0.6884    -0.1185 C.ar    
   4 C4             1.2210    -2.0670    -0.1618 C.ar    
   5 C5             0.0357    -2.7725    -0.0497 C.ar    
   6 C6            -1.1640    -2.1014     0.1065 C.ar    
   7 C7            -1.1853    -0.7229     0.1576 C.ar    
   8 O8             1.0355     2.0904     0.0944 O.2     
   9 O9            -1.1836     2.1321     0.1170 O.3     
  10 C10            2.5050     0.0782    -0.2417 C.3     
  11 C11            0.0519    -4.2786    -0.0984 C.3     
  12 C12           -0.4827    -5.0307     1.1221 C.3     
  13 C13           -1.2966    -4.9975    -0.1730 C.3     
  14 C14           -1.1231     3.5821     0.1634 C.3     
  15 H15            2.1540    -2.5970    -0.2838 H       
  16 H16           -2.0854    -2.6581     0.1927 H       
  17 H17           -2.1220    -0.2004     0.2844 H       
  18 H18            2.8704     0.3366     0.7522 H       
  19 H19            3.2455    -0.5373    -0.7524 H       
  20 H20            2.3332     0.9898    -0.8140 H       
  21 H21            0.8898    -4.7226    -0.6359 H       
  22 H22            0.0032    -5.9696     1.3873 H       
  23 H23           -0.8461    -4.4361     1.9602 H       
  24 H24           -2.1955    -4.3811    -0.1870 H       
  25 H25           -1.3462    -5.9147    -0.7599 H       
  26 H26           -0.5881     3.8950     1.0600 H       
  27 H27           -0.6012     3.9524    -0.7190 H       
  28 H28           -2.1348     3.9874     0.1839 H       
@<TRIPOS>BOND
   1    1    2 1
   2    1    8 2
   3    1    9 1
   4    2    3 ar
   5    2    7 ar
   6    3    4 ar
   7    3   10 1
   8    4    5 ar
   9    4   15 1
  10    5    6 ar
  11    5   11 1
  12    6    7 ar
  13    6   16 1
  14    7   17 1
  15    9   14 1
  16   10   18 1
  17   10   19 1
  18   10   20 1
  19   11   12 1
  20   11   13 1
  21   11   21 1
  22   12   13 1
  23   12   22 1
  24   12   23 1
  25   13   24 1
  26   13   25 1
  27   14   26 1
  28   14   27 1
  29   14   28 1

#	End of record

