#	Name: ASD03080096
#	Creating user name:	WinNT
#	Creation time:	15. 06. 2019 20:26

#	Modifying user name:	WinNT
#	Modification time:	15. 06. 2019 20:26

#	Program:	/corina/corina34_cracker 3.40 0067  02.08.2006

@<TRIPOS>MOLECULE
ASD03080096
  29   31    0    0    0
SMALL
NO_CHARGES


@<TRIPOS>ATOM
   1 F1             0.0021    -0.0041     0.0020 F       
   2 C2            -0.0169     1.3948     0.0097 C.3     
   3 C3             1.3969     1.9164    -0.0010 C.ar    
   4 C4             2.4593     1.0305    -0.0159 C.ar    
   5 C5             3.7605     1.5013    -0.0253 C.ar    
   6 C6             4.0062     2.8586    -0.0199 C.ar    
   7 C7             2.9387     3.7579    -0.0054 C.ar    
   8 C8             1.6288     3.2766    -0.0016 C.ar    
   9 C9             3.1947     5.2139     0.0005 C.2     
  10 O10            2.2715     6.1879     0.0146 O.3     
  11 N11            2.8148     7.2721     0.0161 N.2     
  12 C12            4.1153     7.1289     0.0034 C.2     
  13 N13            4.3747     5.8047    -0.0014 N.2     
  14 C14            5.1200     8.2217     0.0007 C.ar    
  15 C15            4.7147     9.5586     0.0128 C.ar    
  16 C16            5.6907    10.5408     0.0097 C.ar    
  17 C17            7.0228    10.1704    -0.0052 C.ar    
  18 N18            7.3749     8.8991    -0.0164 N.ar    
  19 C19            6.4824     7.9305    -0.0081 C.ar    
  20 F20           -0.6935     1.8582    -1.1237 F       
  21 F21           -0.6717     1.8460     1.1607 F       
  22 H22            2.2723    -0.0332    -0.0198 H       
  23 H23            4.5855     0.8044    -0.0366 H       
  24 H24            5.0222     3.2247    -0.0266 H       
  25 H25            0.7986     3.9672     0.0097 H       
  26 H26            3.6668     9.8195     0.0240 H       
  27 H27            5.4145    11.5848     0.0184 H       
  28 H28            7.7868    10.9338    -0.0081 H       
  29 H29            6.8095     6.9013    -0.0177 H       
@<TRIPOS>BOND
   1    1    2 1
   2    2    3 1
   3    2   20 1
   4    2   21 1
   5    3    4 ar
   6    3    8 ar
   7    4    5 ar
   8    4   22 1
   9    5    6 ar
  10    5   23 1
  11    6    7 ar
  12    6   24 1
  13    7    8 ar
  14    7    9 1
  15    8   25 1
  16    9   10 1
  17    9   13 2
  18   10   11 1
  19   11   12 2
  20   12   13 1
  21   12   14 1
  22   14   15 ar
  23   14   19 ar
  24   15   16 ar
  25   15   26 1
  26   16   17 ar
  27   16   27 1
  28   17   18 ar
  29   17   28 1
  30   18   19 ar
  31   19   29 1

#	End of record

