#	Name: ASD00111126
#	Creating user name:	WinNT
#	Creation time:	15. 06. 2019 18:31

#	Modifying user name:	WinNT
#	Modification time:	15. 06. 2019 18:31

#	Program:	/corina/corina34_cracker 3.40 0067  02.08.2006

@<TRIPOS>MOLECULE
ASD00111126
  34   34    0    0    0
SMALL
NO_CHARGES


@<TRIPOS>ATOM
   1 C1            -0.0073     1.5093    -0.0242 C.2     
   2 C2             0.4317     0.0688     0.0335 C.3     
   3 C3             1.9287    -0.0068    -0.1222 C.ar    
   4 C4             2.7474     0.1489     0.9818 C.ar    
   5 C5             4.1208     0.0796     0.8392 C.ar    
   6 C6             4.6759    -0.1460    -0.4079 C.ar    
   7 C7             3.8564    -0.3019    -1.5114 C.ar    
   8 C8             2.4830    -0.2373    -1.3671 C.ar    
   9 O9             0.7959     2.3775    -0.2902 O.2     
  10 N10           -1.2939     1.8318     0.2143 N.am    
  11 Cl11           6.4004    -0.2326    -0.5880 Cl      
  12 I12            1.9062     0.4903     2.8699 I       
  13 C13           -2.2082     0.8599     0.4041 C.2     
  14 O14           -1.8938    -0.3029     0.2680 O.2     
  15 C15           -3.6213     1.2188     0.7856 C.3     
  16 F16           -4.3678     0.0490     0.9629 F       
  17 F17           -3.6108     1.9505     1.9780 F       
  18 F18           -4.1969     1.9900    -0.2298 F       
  19 C19           -1.6988     3.2388     0.2673 C.3     
  20 C20           -2.1023     3.6976    -1.1103 C.2     
  21 C21           -3.2830     4.2313    -1.3033 C.2     
  22 C22           -3.6864     4.6901    -2.6808 C.3     
  23 H23            0.1441    -0.3604     0.9933 H       
  24 H24           -0.0460    -0.4891    -0.7718 H       
  25 H25            4.7602     0.2017     1.7010 H       
  26 H26            4.2893    -0.4776    -2.4851 H       
  27 H27            1.8432    -0.3631    -2.2280 H       
  28 H28           -2.5426     3.3487     0.9485 H       
  29 H29           -0.8643     3.8439     0.6219 H       
  30 H30           -1.4180     3.5864    -1.9385 H       
  31 H31           -3.9672     4.3425    -0.4751 H       
  32 H32           -2.9918     5.4555    -3.0269 H       
  33 H33           -3.6650     3.8432    -3.3667 H       
  34 H34           -4.6944     5.1035    -2.6454 H       
@<TRIPOS>BOND
   1    1    2 1
   2    1    9 2
   3    1   10 am
   4    2    3 1
   5    2   23 1
   6    2   24 1
   7    3    4 ar
   8    3    8 ar
   9    4    5 ar
  10    4   12 1
  11    5    6 ar
  12    5   25 1
  13    6    7 ar
  14    6   11 1
  15    7    8 ar
  16    7   26 1
  17    8   27 1
  18   10   13 am
  19   10   19 1
  20   13   14 2
  21   13   15 1
  22   15   16 1
  23   15   17 1
  24   15   18 1
  25   19   20 1
  26   19   28 1
  27   19   29 1
  28   20   21 2
  29   20   30 1
  30   21   22 1
  31   21   31 1
  32   22   32 1
  33   22   33 1
  34   22   34 1

#	End of record

