#	Name: ASD04882059
#	Creating user name:	WinNT
#	Creation time:	15. 06. 2019 20:54

#	Modifying user name:	WinNT
#	Modification time:	15. 06. 2019 20:54

#	Program:	/corina/corina34_cracker 3.40 0067  02.08.2006

@<TRIPOS>MOLECULE
ASD04882059
  61   64    0    0    0
SMALL
NO_CHARGES


@<TRIPOS>ATOM
   1 N1            -0.1362     1.5550    -0.0364 N.am    
   2 C2            -0.0763     0.1554    -0.0458 C.ar    
   3 C3            -1.2526    -0.5955     0.0296 C.ar    
   4 C4            -1.1946    -1.9845     0.0209 C.ar    
   5 C5             0.0215    -2.6255    -0.0625 C.ar    
   6 C6             1.2017    -1.8806    -0.1381 C.ar    
   7 C7             1.1458    -0.4840    -0.1353 C.ar    
   8 N8            -2.4844     0.0484     0.1140 N.3     
   9 C9            -2.6118     0.7772     1.3837 C.3     
  10 C10           -3.5898    -0.9050    -0.0559 C.3     
  11 C11           -4.9200    -0.1483    -0.0362 C.3     
  12 N12           -5.0474     0.5805     1.2335 N.3     
  13 C13           -3.9420     1.5339     1.4033 C.3     
  14 C14            0.8455     2.2676     0.5510 C.2     
  15 O15            1.7295     1.6967     1.1625 O.2     
  16 C16            0.8484     3.7307     0.4533 C.2     
  17 O17           -0.0671     4.4841    -0.1904 O.3     
  18 C18            1.7751     4.5697     1.0030 C.2     
  19 C19            1.3897     5.8756     0.6618 C.2     
  20 C20            0.2571     5.7780    -0.0687 C.2     
  21 C21            2.5043    -2.5675    -0.2269 C.2     
  22 N22            2.5568    -3.9142    -0.2350 N.am    
  23 O23            3.5306    -1.9186    -0.2926 O.2     
  24 C24            3.8504    -4.5963    -0.3231 C.3     
  25 C25            3.6302    -6.1104    -0.3138 C.3     
  26 N26            4.7703    -8.2725    -0.3968 N.am    
  27 C27            4.9811    -6.8227    -0.4058 C.3     
  28 C28            4.5882    -9.0192    -1.4996 C.2     
  29 C29            4.7370    -9.0969     0.8169 C.3     
  30 C30            4.0715   -10.4255     0.3945 C.3     
  31 C31            4.3917   -10.4701    -1.1188 C.3     
  32 O32            4.5817    -8.5920    -2.6346 O.2     
  33 H33           -0.8822     2.0114    -0.4562 H       
  34 H34           -2.1052    -2.5622     0.0800 H       
  35 H35            0.0633    -3.7047    -0.0690 H       
  36 H36            2.0561     0.0942    -0.1940 H       
  37 H37           -2.5831     0.0706     2.2131 H       
  38 H38           -1.7890     1.4856     1.4805 H       
  39 H39           -3.4801    -1.4230    -1.0086 H       
  40 H40           -3.5722    -1.6307     0.7572 H       
  41 H41           -4.9487     0.5583    -0.8656 H       
  42 H42           -5.7428    -0.8567    -0.1330 H       
  43 H43           -5.9399     1.0471     1.2946 H       
  44 H44           -4.0517     2.0519     2.3561 H       
  45 H45           -3.9596     2.2596     0.5903 H       
  46 H46            2.6372     4.2839     1.5873 H       
  47 H47            1.9007     6.7872     0.9343 H       
  48 H48           -0.2955     6.6067    -0.4862 H       
  49 H49            1.7382    -4.4318    -0.1825 H       
  50 H50            4.3511    -4.3077    -1.2473 H       
  51 H51            4.4689    -4.3138     0.5288 H       
  52 H52            3.1294    -6.3990     0.6104 H       
  53 H53            3.0117    -6.3929    -1.1657 H       
  54 H54            5.4819    -6.5341    -1.3299 H       
  55 H55            5.5996    -6.5403     0.4461 H       
  56 H56            5.7496    -9.2799     1.1765 H       
  57 H57            4.1443    -8.6071     1.5895 H       
  58 H58            4.5247   -11.2708     0.9125 H       
  59 H59            2.9958   -10.3952     0.5674 H       
  60 H60            3.5573   -10.9003    -1.6727 H       
  61 H61            5.3041   -11.0385    -1.2991 H       
@<TRIPOS>BOND
   1    1    2 1
   2    1   14 am
   3    1   33 1
   4    2    3 ar
   5    2    7 ar
   6    3    4 ar
   7    3    8 1
   8    4    5 ar
   9    4   34 1
  10    5    6 ar
  11    5   35 1
  12    6    7 ar
  13    6   21 1
  14    7   36 1
  15    8    9 1
  16    8   10 1
  17    9   13 1
  18    9   37 1
  19    9   38 1
  20   10   11 1
  21   10   39 1
  22   10   40 1
  23   11   12 1
  24   11   41 1
  25   11   42 1
  26   12   13 1
  27   12   43 1
  28   13   44 1
  29   13   45 1
  30   14   15 2
  31   14   16 1
  32   16   17 1
  33   16   18 2
  34   17   20 1
  35   18   19 1
  36   18   46 1
  37   19   20 2
  38   19   47 1
  39   20   48 1
  40   21   22 am
  41   21   23 2
  42   22   24 1
  43   22   49 1
  44   24   25 1
  45   24   50 1
  46   24   51 1
  47   25   27 1
  48   25   52 1
  49   25   53 1
  50   26   27 1
  51   26   28 am
  52   26   29 1
  53   27   54 1
  54   27   55 1
  55   28   32 2
  56   28   31 1
  57   29   30 1
  58   29   56 1
  59   29   57 1
  60   30   31 1
  61   30   58 1
  62   30   59 1
  63   31   60 1
  64   31   61 1

#	End of record

