#	Name: ASD02198740
#	Creating user name:	WinNT
#	Creation time:	15. 06. 2019 20:20

#	Modifying user name:	WinNT
#	Modification time:	15. 06. 2019 20:20

#	Program:	/corina/corina34_cracker 3.40 0067  02.08.2006

@<TRIPOS>MOLECULE
ASD02198740
  50   54    0    0    0
SMALL
NO_CHARGES


@<TRIPOS>ATOM
   1 C1            -0.0433     1.5019    -0.1150 C.2     
   2 C2            -0.0731     0.1621     0.0975 C.2     
   3 N3             1.0711    -0.5395     0.2603 N.pl3   
   4 N4             2.2356    -0.0047     0.2267 N.2     
   5 C5             2.4071     1.2849     0.0281 C.2     
   6 C6             1.2215     2.1358    -0.1604 C.2     
   7 C7             0.9795    -1.9186     0.4768 C.ar    
   8 C8             1.5809    -2.4906     1.5971 C.ar    
   9 C9             1.4883    -3.8561     1.8083 C.ar    
  10 C10            0.7976    -4.6518     0.9051 C.ar    
  11 C11            0.1995    -4.0799    -0.2109 C.ar    
  12 C12            0.2847    -2.7185    -0.4210 C.ar    
  13 C13            3.7641     1.8672    -0.0040 C.2     
  14 N14            4.3064     2.6070    -1.0171 N.pl3   
  15 N15            5.6083     2.9584    -0.6390 N.2     
  16 C16            5.8517     2.4590     0.5465 C.2     
  17 C17            4.7193     1.7720     0.9841 C.2     
  18 C18            3.6738     2.9516    -2.2183 C.ar    
  19 C19            3.8079     4.2347    -2.7322 C.ar    
  20 C20            3.1833     4.5712    -3.9171 C.ar    
  21 C21            2.4250     3.6319    -4.5917 C.ar    
  22 C22            2.2891     2.3535    -4.0823 C.ar    
  23 C23            2.9159     2.0091    -2.9008 C.ar    
  24 O24            1.3245     3.3390    -0.3486 O.2     
  25 N25            0.7038    -6.0342     1.1187 N.pl3   
  26 C26            1.2400    -6.7150     2.1741 C.2     
  27 C27            0.0559    -6.9228     0.3090 C.2     
  28 C28            0.1860    -8.1534     0.8451 C.2     
  29 C29            0.9381    -8.0214     2.0297 C.2     
  30 O30            2.2571    -1.7096     2.4801 O.3     
  31 C31            2.8478    -2.3637     3.6050 C.3     
  32 H32           -0.9546     2.0655    -0.2495 H       
  33 H33           -1.0229    -0.3504     0.1375 H       
  34 H34            1.9536    -4.3016     2.6752 H       
  35 H35           -0.3369    -4.7011    -0.9129 H       
  36 H36           -0.1811    -2.2763    -1.2892 H       
  37 H37            6.7749     2.5653     1.0966 H       
  38 H38            4.6132     1.2525     1.9250 H       
  39 H39            4.3998     4.9687    -2.2057 H       
  40 H40            3.2869     5.5690    -4.3172 H       
  41 H41            1.9375     3.8975    -5.5181 H       
  42 H42            1.6959     1.6223    -4.6113 H       
  43 H43            2.8097     1.0104    -2.5037 H       
  44 H44            1.8077    -6.2820     2.9844 H       
  45 H45           -0.4698    -6.6818    -0.6031 H       
  46 H46           -0.2151    -9.0716     0.4419 H       
  47 H47            1.2208    -8.8202     2.6993 H       
  48 H48            3.3554    -1.6275     4.2281 H       
  49 H49            2.0703    -2.8583     4.1871 H       
  50 H50            3.5682    -3.1043     3.2576 H       
@<TRIPOS>BOND
   1    1    2 2
   2    1    6 1
   3    1   32 1
   4    2    3 1
   5    2   33 1
   6    3    4 1
   7    3    7 1
   8    4    5 2
   9    5    6 1
  10    5   13 1
  11    6   24 2
  12    7    8 ar
  13    7   12 ar
  14    8    9 ar
  15    8   30 1
  16    9   10 ar
  17    9   34 1
  18   10   11 ar
  19   10   25 1
  20   11   12 ar
  21   11   35 1
  22   12   36 1
  23   13   14 1
  24   13   17 2
  25   14   15 1
  26   14   18 1
  27   15   16 2
  28   16   17 1
  29   16   37 1
  30   17   38 1
  31   18   19 ar
  32   18   23 ar
  33   19   20 ar
  34   19   39 1
  35   20   21 ar
  36   20   40 1
  37   21   22 ar
  38   21   41 1
  39   22   23 ar
  40   22   42 1
  41   23   43 1
  42   25   27 1
  43   25   26 1
  44   26   29 2
  45   26   44 1
  46   27   28 2
  47   27   45 1
  48   28   29 1
  49   28   46 1
  50   29   47 1
  51   30   31 1
  52   31   48 1
  53   31   49 1
  54   31   50 1

#	End of record

