#	Name: ASD01916423
#	Creating user name:	WinNT
#	Creation time:	15. 06. 2019 20:07

#	Modifying user name:	WinNT
#	Modification time:	15. 06. 2019 20:07

#	Program:	/corina/corina34_cracker 3.40 0067  02.08.2006

@<TRIPOS>MOLECULE
ASD01916423
  39   41    0    0    0
SMALL
NO_CHARGES


@<TRIPOS>ATOM
   1 C1            -0.0168     1.3912     0.0097 C.ar    
   2 C2             0.0021    -0.0041     0.0020 C.ar    
   3 C3             1.2204    -0.6594    -0.0131 C.ar    
   4 C4             2.3820     0.1007    -0.0201 C.ar    
   5 C5             2.2905     1.4803    -0.0118 C.ar    
   6 N6             1.1180     2.0808     0.0026 N.ar    
   7 C7            -1.2697     2.0847     0.0194 C.1     
   8 C8            -2.2967     2.6533     0.0273 C.1     
   9 C9            -3.5846     3.3662     0.0372 C.3     
  10 C10           -3.3321     4.8752     0.0443 C.3     
  11 N11           -4.6138     5.5848     0.0541 N.pl3   
  12 N12           -5.6516     5.4178    -0.8707 N.2     
  13 C13           -6.6329     6.2156    -0.5421 C.2     
  14 C14           -6.2518     6.9250     0.6135 C.2     
  15 C15           -4.9998     6.5069     0.9588 C.2     
  16 C16           -7.0663     7.9396     1.3287 C.ar    
  17 C17           -7.2427     7.8489     2.7076 C.ar    
  18 C18           -8.0005     8.7951     3.3676 C.ar    
  19 C19           -8.5847     9.8317     2.6623 C.ar    
  20 C20           -8.4131     9.9261     1.2931 C.ar    
  21 C21           -7.6521     8.9888     0.6241 C.ar    
  22 C22           -7.9437     6.3534    -1.2727 C.3     
  23 H23           -0.9212    -0.5644     0.0082 H       
  24 H24            1.2668    -1.7384    -0.0190 H       
  25 H25            3.3484    -0.3812    -0.0315 H       
  26 H26            3.1928     2.0739    -0.0172 H       
  27 H27           -4.1555     3.0975    -0.8515 H       
  28 H28           -4.1471     3.0878     0.9284 H       
  29 H29           -2.7611     5.1440     0.9330 H       
  30 H30           -2.7695     5.1536    -0.8469 H       
  31 H31           -4.4218     6.8534     1.8027 H       
  32 H32           -6.7876     7.0395     3.2591 H       
  33 H33           -8.1379     8.7257     4.4366 H       
  34 H34           -9.1772    10.5697     3.1826 H       
  35 H35           -8.8720    10.7371     0.7470 H       
  36 H36           -7.5151     9.0660    -0.4444 H       
  37 H37           -8.6649     5.6470    -0.8615 H       
  38 H38           -8.3213     7.3689    -1.1532 H       
  39 H39           -7.7932     6.1439    -2.3317 H       
@<TRIPOS>BOND
   1    1    2 ar
   2    1    6 ar
   3    1    7 1
   4    2    3 ar
   5    2   23 1
   6    3    4 ar
   7    3   24 1
   8    4    5 ar
   9    4   25 1
  10    5    6 ar
  11    5   26 1
  12    7    8 3
  13    8    9 1
  14    9   10 1
  15    9   27 1
  16    9   28 1
  17   10   11 1
  18   10   29 1
  19   10   30 1
  20   11   12 1
  21   11   15 1
  22   12   13 2
  23   13   14 1
  24   13   22 1
  25   14   15 2
  26   14   16 1
  27   15   31 1
  28   16   17 ar
  29   16   21 ar
  30   17   18 ar
  31   17   32 1
  32   18   19 ar
  33   18   33 1
  34   19   20 ar
  35   19   34 1
  36   20   21 ar
  37   20   35 1
  38   21   36 1
  39   22   37 1
  40   22   38 1
  41   22   39 1

#	End of record

