#	Name: ASD01882372
#	Creating user name:	WinNT
#	Creation time:	15. 06. 2019 19:44

#	Modifying user name:	WinNT
#	Modification time:	15. 06. 2019 19:44

#	Program:	/corina/corina34_cracker 3.40 0067  02.08.2006

@<TRIPOS>MOLECULE
ASD01882372
  55   59    0    0    0
SMALL
NO_CHARGES


@<TRIPOS>ATOM
   1 C1             0.7344     1.2380     1.9187 C.2     
   2 C2             0.7438    -0.1587     1.7583 C.2     
   3 C3             1.3031    -0.6966     0.6304 C.2     
   4 C4             1.8580     0.1572    -0.3472 C.2     
   5 C5             1.8381     1.4932    -0.1728 C.2     
   6 N6             1.2832     2.0398     0.9476 N.pl3   
   7 N7             0.5132     3.2651     2.5434 N.2     
   8 N8             0.2772     2.0423     2.8665 N.2     
   9 C9             1.1213     3.3206     1.3877 C.2     
  10 N10            1.3248    -2.0774     0.4489 N.pl3   
  11 C11            2.6003    -2.8033     0.3794 C.3     
  12 C12            2.6251    -3.6346    -0.9071 C.3     
  13 C13            1.3872    -4.5332    -0.9531 C.3     
  14 C14            0.1258    -3.6667    -0.9621 C.3     
  15 C15            0.0725    -2.8365     0.3294 C.3     
  16 C16            1.4261    -5.3901    -2.2200 C.3     
  17 F17            2.6383    -6.0862    -2.2751 F       
  18 F18            0.3652    -6.3019    -2.1991 F       
  19 F19            1.3102    -4.5656    -3.3443 F       
  20 O20            1.3729    -5.3829     0.1958 O.3     
  21 C21            2.5123    -6.2390     0.2998 C.3     
  22 C22            1.8201    -8.2217     1.6713 C.ar    
  23 C23            2.4549    -6.9957     1.6017 C.ar    
  24 C24            3.0384    -6.4714     2.7447 C.ar    
  25 C25            2.9613    -7.2031     3.9202 C.ar    
  26 C26            2.3100    -8.4217     3.9133 C.ar    
  27 N27            1.7658    -8.8896     2.8068 N.ar    
  28 C28            1.5611     4.5713     0.6712 C.3     
  29 C29            0.4322     5.0621    -0.2376 C.3     
  30 C30            0.6394     6.3912    -0.9665 C.3     
  31 C31            0.6940     5.0752    -1.7450 C.3     
  32 Cl32           0.0556    -1.1880     2.9750 Cl      
  33 H33            2.3007    -0.2622    -1.2386 H       
  34 H34            2.2657     2.1375    -0.9268 H       
  35 H35            3.4258    -2.0916     0.3706 H       
  36 H36            2.6930    -3.4627     1.2424 H       
  37 H37            2.6238    -2.9690    -1.7704 H       
  38 H38            3.5235    -4.2516    -0.9243 H       
  39 H39            0.1480    -3.0008    -1.8248 H       
  40 H40           -0.7548    -4.3066    -1.0184 H       
  41 H41           -0.0368    -3.4986     1.1884 H       
  42 H42           -0.7704    -2.1467     0.2876 H       
  43 H43            2.5136    -6.9447    -0.5309 H       
  44 H44            3.4217    -5.6389     0.2681 H       
  45 H45            1.3590    -8.6350     0.7864 H       
  46 H46            3.5415    -5.5161     2.7201 H       
  47 H47            3.4050    -6.8253     4.8295 H       
  48 H48            2.2456    -8.9976     4.8247 H       
  49 H49            1.8008     5.3435     1.4021 H       
  50 H50            2.4435     4.3541     0.0694 H       
  51 H51           -0.5775     4.8231     0.0962 H       
  52 H52           -0.2341     7.0266    -1.1126 H       
  53 H53            1.5799     6.9160    -0.7986 H       
  54 H54            1.6703     4.7342    -2.0893 H       
  55 H55           -0.1437     4.8448    -2.4032 H       
@<TRIPOS>BOND
   1    1    2 1
   2    1    6 1
   3    1    8 2
   4    2    3 2
   5    2   32 1
   6    3    4 1
   7    3   10 1
   8    4    5 2
   9    4   33 1
  10    5    6 1
  11    5   34 1
  12    6    9 1
  13    7    8 1
  14    7    9 2
  15    9   28 1
  16   10   11 1
  17   10   15 1
  18   11   12 1
  19   11   35 1
  20   11   36 1
  21   12   13 1
  22   12   37 1
  23   12   38 1
  24   13   14 1
  25   13   16 1
  26   13   20 1
  27   14   15 1
  28   14   39 1
  29   14   40 1
  30   15   41 1
  31   15   42 1
  32   16   17 1
  33   16   18 1
  34   16   19 1
  35   20   21 1
  36   21   23 1
  37   21   43 1
  38   21   44 1
  39   22   23 ar
  40   22   27 ar
  41   22   45 1
  42   23   24 ar
  43   24   25 ar
  44   24   46 1
  45   25   26 ar
  46   25   47 1
  47   26   27 ar
  48   26   48 1
  49   28   29 1
  50   28   49 1
  51   28   50 1
  52   29   30 1
  53   29   31 1
  54   29   51 1
  55   30   31 1
  56   30   52 1
  57   30   53 1
  58   31   54 1
  59   31   55 1

#	End of record

