#	Name: ASD01916463
#	Creating user name:	WinNT
#	Creation time:	15. 06. 2019 20:07

#	Modifying user name:	WinNT
#	Modification time:	15. 06. 2019 20:07

#	Program:	/corina/corina34_cracker 3.40 0067  02.08.2006

@<TRIPOS>MOLECULE
ASD01916463
  41   44    0    0    0
SMALL
NO_CHARGES


@<TRIPOS>ATOM
   1 C1            -0.1087     1.2673    -0.2591 C.ar    
   2 C2            -0.0353    -0.1450    -0.2630 C.ar    
   3 C3            -1.2000    -0.9113    -0.3108 C.ar    
   4 C4            -2.4161    -0.2958    -0.3652 C.ar    
   5 C5            -2.5065     1.1044    -0.3761 C.ar    
   6 C6            -1.3554     1.8867    -0.3222 C.ar    
   7 N7             1.0396     1.9778    -0.1840 N.2     
   8 C8             2.2203     1.4141    -0.1358 C.2     
   9 N9             2.3803     0.0699    -0.2323 N.am    
  10 C10            1.2981    -0.7542    -0.2273 C.2     
  11 C11           -3.7912     1.7335    -0.4437 C.1     
  12 C12           -4.8444     2.2492    -0.4991 C.1     
  13 C13           -6.1290     2.8783    -0.5666 C.ar    
  14 N14           -6.2145     4.2051    -0.5770 N.ar    
  15 C15           -7.3770     4.8208    -0.6384 C.ar    
  16 C16           -8.5590     4.1044    -0.6942 C.ar    
  17 C17           -8.5168     2.7167    -0.6857 C.ar    
  18 C18           -7.2835     2.0934    -0.6269 C.ar    
  19 O19            1.4328    -1.9637    -0.1942 O.2     
  20 C20            3.3933     2.3424     0.0824 C.3     
  21 C21            4.6823     1.7023    -0.4291 C.3     
  22 C22            4.7973     0.3047     0.1933 C.3     
  23 C23            3.6895    -0.5679    -0.3912 C.3     
  24 C24            3.6812    -1.9183     0.3279 C.3     
  25 H25           -1.1389    -1.9896    -0.3051 H       
  26 H26           -3.3166    -0.8910    -0.4004 H       
  27 H27           -1.4284     2.9642    -0.3295 H       
  28 H28           -7.4079     5.9003    -0.6449 H       
  29 H29           -9.5066     4.6202    -0.7435 H       
  30 H30           -9.4268     2.1366    -0.7285 H       
  31 H31           -7.2141     1.0156    -0.6191 H       
  32 H32            3.2180     3.2763    -0.4516 H       
  33 H33            3.4932     2.5528     1.1472 H       
  34 H34            4.6469     1.6201    -1.5154 H       
  35 H35            5.5378     2.3092    -0.1327 H       
  36 H36            5.7697    -0.1258    -0.0459 H       
  37 H37            4.6803     0.3727     1.2748 H       
  38 H38            3.8827    -0.7292    -1.4518 H       
  39 H39            3.1603    -1.8196     1.2803 H       
  40 H40            3.1704    -2.6563    -0.2907 H       
  41 H41            4.7068    -2.2412     0.5065 H       
@<TRIPOS>BOND
   1    1    2 ar
   2    1    7 1
   3    1    6 ar
   4    2    3 ar
   5    2   10 1
   6    3    4 ar
   7    3   25 1
   8    4    5 ar
   9    4   26 1
  10    5    6 ar
  11    5   11 1
  12    6   27 1
  13    7    8 2
  14    8    9 1
  15    8   20 1
  16    9   10 am
  17    9   23 1
  18   10   19 2
  19   11   12 3
  20   12   13 1
  21   13   14 ar
  22   13   18 ar
  23   14   15 ar
  24   15   16 ar
  25   15   28 1
  26   16   17 ar
  27   16   29 1
  28   17   18 ar
  29   17   30 1
  30   18   31 1
  31   20   21 1
  32   20   32 1
  33   20   33 1
  34   21   22 1
  35   21   34 1
  36   21   35 1
  37   22   23 1
  38   22   36 1
  39   22   37 1
  40   23   24 1
  41   23   38 1
  42   24   39 1
  43   24   40 1
  44   24   41 1

#	End of record

