#	Name: ASD01820107
#	Creating user name:	WinNT
#	Creation time:	15. 06. 2019 19:36

#	Modifying user name:	WinNT
#	Modification time:	15. 06. 2019 19:36

#	Program:	/corina/corina34_cracker 3.40 0067  02.08.2006

@<TRIPOS>MOLECULE
ASD01820107
  47   50    0    0    0
SMALL
NO_CHARGES


@<TRIPOS>ATOM
   1 O1             0.0722     1.1151    -0.1729 O.3     
   2 O2             2.8127    -3.2818     0.8965 O.3     
   3 O3             3.7224    -2.8863    -1.0782 O.2     
   4 O4             4.5785    -4.8107     2.3720 O.3     
   5 N5             0.8463     0.1380     2.2379 N.4     
   6 C6             0.0041    -0.8255     1.4801 C.3     
   7 C7             1.9979     0.3803     1.3286 C.3     
   8 C8             0.0394    -0.2996     0.0267 C.3     
   9 C9             1.3569     0.4971    -0.0734 C.3     
  10 C10            0.7271    -2.1817     1.5070 C.3     
  11 C11            2.8658    -0.8882     1.3446 C.3     
  12 C12            2.0570    -2.0495     0.7594 C.3     
  13 C13            0.1106     1.3853     2.4846 C.3     
  14 C14            1.3014    -0.4558     3.5021 C.3     
  15 C15            3.6360    -3.6072    -0.1124 C.2     
  16 C16            4.4526    -4.8717    -0.0407 C.3     
  17 C17            5.3702    -4.8175     1.1824 C.3     
  18 C18            5.2866    -5.0027    -1.2890 C.ar    
  19 C19            5.1271    -6.0997    -2.1149 C.ar    
  20 C20            6.2071    -4.0230    -1.6112 C.ar    
  21 C21            5.8921    -6.2198    -3.2599 C.ar    
  22 C22            6.9721    -4.1431    -2.7563 C.ar    
  23 C23            6.8163    -5.2427    -3.5794 C.ar    
  24 H24           -1.0110    -0.8837     1.8728 H       
  25 H25            2.5578     1.2748     1.6016 H       
  26 H26           -0.3334    -0.9525    -0.7625 H       
  27 H27            2.0132     0.4420    -0.9419 H       
  28 H28            0.9164    -2.4741     2.5399 H       
  29 H29            0.1079    -2.9351     1.0201 H       
  30 H30            3.7600    -0.7263     0.7428 H       
  31 H31            3.1512    -1.1224     2.3702 H       
  32 H32            1.8623    -1.8591    -0.2960 H       
  33 H33           -0.8502     1.1555     2.9451 H       
  34 H34            0.6902     2.0230     3.1522 H       
  35 H35           -0.0539     1.9031     1.5397 H       
  36 H36            1.8450    -1.3777     3.2956 H       
  37 H37            1.9578     0.2455     4.0173 H       
  38 H38            0.4391    -0.6757     4.1315 H       
  39 H39            3.7862    -5.7303     0.0428 H       
  40 H40            5.9748    -3.9114     1.1431 H       
  41 H41            6.0234    -5.6902     1.1856 H       
  42 H42            4.4050    -6.8630    -1.8653 H       
  43 H43            6.3283    -3.1636    -0.9684 H       
  44 H44            5.0956    -4.7771     3.1884 H       
  45 H45            5.7680    -7.0772    -3.9048 H       
  46 H46            7.6910    -3.3775    -3.0082 H       
  47 H47            7.4143    -5.3367    -4.4738 H       
@<TRIPOS>BOND
   1    1    8 1
   2    1    9 1
   3    2   12 1
   4    2   15 1
   5    3   15 2
   6    4   17 1
   7    4   44 1
   8    5    6 1
   9    5    7 1
  10    5   13 1
  11    5   14 1
  12    6    8 1
  13    6   10 1
  14    6   24 1
  15    7    9 1
  16    7   11 1
  17    7   25 1
  18    8    9 1
  19    8   26 1
  20    9   27 1
  21   10   12 1
  22   10   28 1
  23   10   29 1
  24   11   12 1
  25   11   30 1
  26   11   31 1
  27   12   32 1
  28   13   33 1
  29   13   34 1
  30   13   35 1
  31   14   36 1
  32   14   37 1
  33   14   38 1
  34   15   16 1
  35   16   17 1
  36   16   18 1
  37   16   39 1
  38   17   40 1
  39   17   41 1
  40   18   19 ar
  41   18   20 ar
  42   19   21 ar
  43   19   42 1
  44   20   22 ar
  45   20   43 1
  46   21   23 ar
  47   21   45 1
  48   22   23 ar
  49   22   46 1
  50   23   47 1

#	End of record

