#	Name: ASD00241017
#	Creating user name:	WinNT
#	Creation time:	15. 06. 2019 18:33

#	Modifying user name:	WinNT
#	Modification time:	15. 06. 2019 18:33

#	Program:	/corina/corina34_cracker 3.40 0067  02.08.2006

@<TRIPOS>MOLECULE
ASD00241017
  41   43    0    0    0
SMALL
NO_CHARGES


@<TRIPOS>ATOM
   1 C1            -0.0189     1.5409     0.0105 C.3     
   2 C2             0.0021    -0.0041     0.0020 C.3     
   3 C3            -0.6985    -0.3962     1.3218 C.3     
   4 O4            -1.5292     0.7387     1.6500 O.3     
   5 C5            -0.7297     1.8993     1.3344 C.3     
   6 C6            -2.7294    -1.6482     0.4762 C.ar    
   7 C7            -3.1398    -2.9905     0.5375 C.ar    
   8 N8            -3.5088    -0.7617    -0.1349 N.ar    
   9 C9            -4.6499    -1.1322    -0.6762 C.ar    
  10 N10           -5.0776    -2.3813    -0.6436 N.ar    
  11 C11           -4.3660    -3.3372    -0.0555 C.ar    
  12 N12           -2.1780    -3.6719     1.2051 N.2     
  13 C13           -1.2266    -2.8533     1.5490 C.2     
  14 N14           -1.5225    -1.5917     1.1261 N.pl3   
  15 C15           -1.6237     3.1262     1.1437 C.3     
  16 O16           -2.2379     3.4662     2.3884 O.3     
  17 O17            1.3126     2.0597     0.0006 O.3     
  18 O18            1.3471    -0.4865    -0.0134 O.3     
  19 N19           -4.8222    -4.6434    -0.0266 N.pl3   
  20 C20            0.0164    -3.2418     2.3074 C.3     
  21 C21            1.1148    -3.6367     1.3183 C.3     
  22 C22            2.3767    -4.0312     2.0883 C.3     
  23 H23           -0.5818     1.9199    -0.8424 H       
  24 H24           -0.5526    -0.3889    -0.8538 H       
  25 H25            0.0385    -0.5666     2.1065 H       
  26 H26            0.0026     2.0810     2.1211 H       
  27 H27           -5.2595    -0.3867    -1.1652 H       
  28 H28           -1.0207     3.9646     0.7951 H       
  29 H29           -2.3953     2.9025     0.4070 H       
  30 H30           -2.8202     4.2368     2.3421 H       
  31 H31            1.3583     3.0256     0.0053 H       
  32 H32            1.8524    -0.2178    -0.7928 H       
  33 H33           -5.6705    -4.8700    -0.4388 H       
  34 H34           -4.2936    -5.3322     0.4057 H       
  35 H35            0.3546    -2.3972     2.9078 H       
  36 H36           -0.2054    -4.0860     2.9603 H       
  37 H37            0.7766    -4.4813     0.7180 H       
  38 H38            1.3365    -2.7925     0.6654 H       
  39 H39            2.1550    -4.8754     2.7412 H       
  40 H40            3.1592    -4.3125     1.3836 H       
  41 H41            2.7149    -3.1866     2.6887 H       
@<TRIPOS>BOND
   1    1    2 1
   2    1   17 1
   3    1    5 1
   4    1   23 1
   5    2    3 1
   6    2   18 1
   7    2   24 1
   8    3    4 1
   9    3   14 1
  10    3   25 1
  11    4    5 1
  12    5   15 1
  13    5   26 1
  14    6    7 ar
  15    6    8 ar
  16    6   14 1
  17    7   12 1
  18    7   11 ar
  19    8    9 ar
  20    9   10 ar
  21    9   27 1
  22   10   11 ar
  23   11   19 1
  24   12   13 2
  25   13   14 1
  26   13   20 1
  27   15   16 1
  28   15   28 1
  29   15   29 1
  30   16   30 1
  31   17   31 1
  32   18   32 1
  33   19   33 1
  34   19   34 1
  35   20   21 1
  36   20   35 1
  37   20   36 1
  38   21   22 1
  39   21   37 1
  40   21   38 1
  41   22   39 1
  42   22   40 1
  43   22   41 1

#	End of record

