#	Name: ASD03180010
#	Creating user name:	WinNT
#	Creation time:	15. 06. 2019 20:33

#	Modifying user name:	WinNT
#	Modification time:	15. 06. 2019 20:33

#	Program:	/corina/corina34_cracker 3.40 0067  02.08.2006

@<TRIPOS>MOLECULE
ASD03180010
  51   53    0    0    0
SMALL
NO_CHARGES


@<TRIPOS>ATOM
   1 C1             7.4428     3.6349     1.7870 C.ar    
   2 C2             7.2010     4.9742     2.0347 C.ar    
   3 C3             5.9920     5.5376     1.6683 C.ar    
   4 C4             5.0262     4.7622     1.0549 C.ar    
   5 C5             5.2681     3.4237     0.8080 C.ar    
   6 C6             6.4764     2.8603     1.1736 C.ar    
   7 S7             4.0360     2.4354     0.0270 S.o2    
   8 O8             2.7831     3.0138     0.3663 O.2     
   9 N9             4.2141     2.6312    -1.6077 N.am    
  10 O10            4.3691     1.0828     0.3078 O.2     
  11 C11            3.4088     3.6277    -2.3181 C.3     
  12 C12            5.1768     1.8078    -2.3434 C.3     
  13 C13            4.4589     0.6494    -2.9868 C.ar    
  14 C14            4.1912     4.9097    -2.4424 C.2     
  15 N15            3.6464     5.9741    -3.0643 N.am    
  16 C16            4.4081     7.1323    -3.2676 C.ar    
  17 O17            5.3113     4.9836    -1.9828 O.2     
  18 C18            4.0087     0.7529    -4.2897 C.ar    
  19 C19            3.3502    -0.3096    -4.8798 C.ar    
  20 C20            3.1421    -1.4757    -4.1672 C.ar    
  21 C21            3.5930    -1.5795    -2.8646 C.ar    
  22 C22            4.2555    -0.5185    -2.2759 C.ar    
  23 C23            4.2317     7.8862    -4.4202 C.ar    
  24 C24            4.9822     9.0280    -4.6202 C.ar    
  25 C25            5.9128     9.4222    -3.6703 C.ar    
  26 C26            6.0904     8.6691    -2.5179 C.ar    
  27 C27            5.3355     7.5297    -2.3140 C.ar    
  28 Br28           8.5226     6.0344     2.8745 Br      
  29 Cl29           7.2558     9.1625    -1.3296 Cl      
  30 O30            6.6518    10.5465    -3.8683 O.3     
  31 C31            6.4172    11.2726    -5.0765 C.3     
  32 H32            8.3884     3.1957     2.0689 H       
  33 H33            5.8027     6.5831     1.8618 H       
  34 H34            4.0822     5.2020     0.7687 H       
  35 H35            6.6651     1.8147     0.9802 H       
  36 H36            3.1628     3.2544    -3.3122 H       
  37 H37            2.4899     3.8153    -1.7627 H       
  38 H38            5.6567     2.4110    -3.1141 H       
  39 H39            5.9325     1.4297    -1.6549 H       
  40 H40            2.7269     5.9383    -3.3712 H       
  41 H41            4.1713     1.6639    -4.8465 H       
  42 H42            2.9978    -0.2286    -5.8975 H       
  43 H43            2.6269    -2.3056    -4.6280 H       
  44 H44            3.4302    -2.4904    -2.3077 H       
  45 H45            4.6110    -0.6009    -1.2595 H       
  46 H46            3.5076     7.5794    -5.1605 H       
  47 H47            4.8447     9.6142    -5.5169 H       
  48 H48            5.4700     6.9461    -1.4152 H       
  49 H49            7.0703    12.1447    -5.1089 H       
  50 H50            6.6256    10.6307    -5.9325 H       
  51 H51            5.3769    11.5963    -5.1098 H       
@<TRIPOS>BOND
   1    1    2 ar
   2    1    6 ar
   3    1   32 1
   4    2    3 ar
   5    2   28 1
   6    3    4 ar
   7    3   33 1
   8    4    5 ar
   9    4   34 1
  10    5    6 ar
  11    5    7 1
  12    6   35 1
  13    7    8 2
  14    7    9 am
  15    7   10 2
  16    9   11 1
  17    9   12 1
  18   11   14 1
  19   11   36 1
  20   11   37 1
  21   12   13 1
  22   12   38 1
  23   12   39 1
  24   13   18 ar
  25   13   22 ar
  26   14   15 am
  27   14   17 2
  28   15   16 1
  29   15   40 1
  30   16   23 ar
  31   16   27 ar
  32   18   19 ar
  33   18   41 1
  34   19   20 ar
  35   19   42 1
  36   20   21 ar
  37   20   43 1
  38   21   22 ar
  39   21   44 1
  40   22   45 1
  41   23   24 ar
  42   23   46 1
  43   24   25 ar
  44   24   47 1
  45   25   26 ar
  46   25   30 1
  47   26   27 ar
  48   26   29 1
  49   27   48 1
  50   30   31 1
  51   31   49 1
  52   31   50 1
  53   31   51 1

#	End of record

