#	Name: ASD04550037
#	Creating user name:	WinNT
#	Creation time:	15. 06. 2019 20:49

#	Modifying user name:	WinNT
#	Modification time:	15. 06. 2019 20:49

#	Program:	/corina/corina34_cracker 3.40 0067  02.08.2006

@<TRIPOS>MOLECULE
ASD04550037
  38   39    0    0    0
SMALL
NO_CHARGES


@<TRIPOS>ATOM
   1 C1            -0.0651     1.4656     0.0030 C.ar    
   2 C2            -0.1567     0.1211    -0.3037 C.ar    
   3 C3            -1.3889    -0.5059    -0.3023 C.ar    
   4 C4            -2.5291     0.2118     0.0062 C.ar    
   5 C5            -2.4374     1.5565     0.3139 C.ar    
   6 C6            -1.2050     2.1823     0.3168 C.ar    
   7 C7            -3.6806     2.3391     0.6499 C.3     
   8 C8            -4.6463     2.2963    -0.5361 C.3     
   9 C9             1.2780     2.1491     0.0014 C.3     
  10 C10            1.7595     2.3074    -1.4178 C.ar    
  11 O11            1.1582     3.4364     0.6101 O.3     
  12 C12            1.8302     3.5649    -1.9875 C.ar    
  13 C13            2.2717     3.7101    -3.2894 C.ar    
  14 C14            2.6430     2.5978    -4.0214 C.ar    
  15 C15            2.5731     1.3403    -3.4514 C.ar    
  16 C16            2.1357     1.1956    -2.1481 C.ar    
  17 C17            2.2812     1.3040     0.7890 C.3     
  18 C18           -4.3440     1.7332     1.8598 C.2     
  19 O19           -3.8571     0.7652     2.3945 O.2     
  20 O20           -5.4757     2.2689     2.3436 O.3     
  21 H21            0.7343    -0.4397    -0.5448 H       
  22 H22           -1.4605    -1.5564    -0.5427 H       
  23 H23           -3.4917    -0.2779     0.0067 H       
  24 H24           -1.1334     3.2328     0.5572 H       
  25 H25           -3.4122     3.3739     0.8627 H       
  26 H26           -4.9147     1.2616    -0.7489 H       
  27 H27           -5.5455     2.8624    -0.2931 H       
  28 H28           -4.1665     2.7346    -1.4113 H       
  29 H29            0.5370     4.0269     0.1623 H       
  30 H30            1.5401     4.4339    -1.4156 H       
  31 H31            2.3263     4.6925    -3.7347 H       
  32 H32            2.9873     2.7111    -5.0388 H       
  33 H33            2.8628     0.4713    -4.0235 H       
  34 H34            2.0811     0.2132    -1.7028 H       
  35 H35            2.3727     0.3221     0.3247 H       
  36 H36            3.2527     1.7983     0.7878 H       
  37 H37            1.9330     1.1895     1.8155 H       
  38 H38           -5.8643     1.8456     3.1213 H       
@<TRIPOS>BOND
   1    1    2 ar
   2    1    9 1
   3    1    6 ar
   4    2    3 ar
   5    2   21 1
   6    3    4 ar
   7    3   22 1
   8    4    5 ar
   9    4   23 1
  10    5    6 ar
  11    5    7 1
  12    6   24 1
  13    7    8 1
  14    7   18 1
  15    7   25 1
  16    8   26 1
  17    8   27 1
  18    8   28 1
  19    9   10 1
  20    9   11 1
  21    9   17 1
  22   10   12 ar
  23   10   16 ar
  24   11   29 1
  25   12   13 ar
  26   12   30 1
  27   13   14 ar
  28   13   31 1
  29   14   15 ar
  30   14   32 1
  31   15   16 ar
  32   15   33 1
  33   16   34 1
  34   17   35 1
  35   17   36 1
  36   17   37 1
  37   18   19 2
  38   18   20 1
  39   20   38 1

#	End of record

