#	Name: ASD06170099
#	Creating user name:	WinNT
#	Creation time:	15. 06. 2019 21:05

#	Modifying user name:	WinNT
#	Modification time:	15. 06. 2019 21:05

#	Program:	/corina/corina34_cracker 3.40 0067  02.08.2006

@<TRIPOS>MOLECULE
ASD06170099
  67   71    0    0    0
SMALL
NO_CHARGES


@<TRIPOS>ATOM
   1 N1            -0.0958     1.4249    -0.3234 N.pl3   
   2 N2            -0.0448     0.0642    -0.0068 N.am    
   3 C3             1.2372    -0.2694     0.2497 C.2     
   4 C4             2.0303     0.9586     0.0822 C.2     
   5 C5             1.1410     1.9551    -0.2698 C.2     
   6 C6             3.4812     1.0976     0.2559 C.2     
   7 O7             4.0137     2.1785     0.0855 O.2     
   8 N8             4.2237     0.0281     0.6043 N.am    
   9 C9            -1.1393    -0.8055     0.0373 C.ar    
  10 C10           -2.0901    -0.7794    -0.9748 C.ar    
  11 C11           -3.1694    -1.6398    -0.9286 C.ar    
  12 C12           -3.3043    -2.5263     0.1241 C.ar    
  13 C13           -2.3594    -2.5549     1.1333 C.ar    
  14 C14           -1.2747    -1.7011     1.0901 C.ar    
  15 O15            1.6552    -1.3696     0.5592 O.2     
  16 C16           -1.3132     2.1632    -0.6686 C.3     
  17 C17           -1.9305     2.7512     0.6019 C.3     
  18 O18           -1.0428     3.7241     1.1565 O.3     
  19 C19           -1.5271     4.3378     2.3527 C.3     
  20 C20            1.4951     3.3933    -0.5477 C.3     
  21 C21            5.6212     0.1167     0.6065 C.ar    
  22 C22            6.2391     1.3415     0.8232 C.ar    
  23 C23            7.6186     1.4279     0.8257 C.ar    
  24 C24            8.3860     0.2891     0.6115 C.ar    
  25 C25            7.7680    -0.9330     0.3954 C.ar    
  26 C26            6.3893    -1.0208     0.3980 C.ar    
  27 O27            9.7434     0.3737     0.6135 O.3     
  28 N28           11.6243     0.8865     4.2478 N.ar    
  29 C29           10.3138     0.8924     4.1761 C.ar    
  30 C30            9.6456     0.7230     2.9704 C.ar    
  31 C31           10.3688     0.5419     1.8043 C.ar    
  32 C32           11.7794     0.5372     1.8932 C.ar    
  33 C33           12.5793     0.3596     0.7550 C.ar    
  34 C34           13.9351     0.3604     0.8731 C.ar    
  35 C35           14.5443     0.5365     2.1188 C.ar    
  36 C36           13.7867     0.7127     3.2545 C.ar    
  37 C37           12.3859     0.7165     3.1605 C.ar    
  38 O38           15.8996     0.5333     2.2098 O.3     
  39 C39           16.6308     0.3456     0.9965 C.3     
  40 F40            8.2208     2.6189     1.0359 F       
  41 H41            3.7900    -0.8030     0.8534 H       
  42 H42           -1.9857    -0.0867    -1.7968 H       
  43 H43           -3.9091    -1.6200    -1.7153 H       
  44 H44           -4.1496    -3.1976     0.1582 H       
  45 H45           -2.4676    -3.2484     1.9541 H       
  46 H46           -0.5349    -1.7267     1.8766 H       
  47 H47           -1.0657     2.9694    -1.3591 H       
  48 H48           -2.0267     1.4872    -1.1399 H       
  49 H49           -2.8817     3.2244     0.3583 H       
  50 H50           -2.0961     1.9549     1.3276 H       
  51 H51           -0.7964     5.0632     2.7105 H       
  52 H52           -2.4700     4.8438     2.1454 H       
  53 H53           -1.6844     3.5744     3.1147 H       
  54 H54            1.4404     3.9664     0.3778 H       
  55 H55            2.5071     3.4472    -0.9492 H       
  56 H56            0.7940     3.8065    -1.2729 H       
  57 H57            5.6421     2.2261     0.9892 H       
  58 H58            8.3648    -1.8176     0.2290 H       
  59 H59            5.9088    -1.9740     0.2336 H       
  60 H60            9.7391     1.0330     5.0797 H       
  61 H61            8.5660     0.7319     2.9429 H       
  62 H62           12.1204     0.2222    -0.2130 H       
  63 H63           14.5475     0.2230    -0.0058 H       
  64 H64           14.2670     0.8473     4.2124 H       
  65 H65           16.3645    -0.6156     0.5568 H       
  66 H66           16.3861     1.1452     0.2973 H       
  67 H67           17.6996     0.3639     1.2098 H       
@<TRIPOS>BOND
   1    1    2 1
   2    1    5 1
   3    1   16 1
   4    2    3 am
   5    2    9 1
   6    3    4 1
   7    3   15 2
   8    4    5 2
   9    4    6 1
  10    5   20 1
  11    6    7 2
  12    6    8 am
  13    8   21 1
  14    8   41 1
  15    9   10 ar
  16    9   14 ar
  17   10   11 ar
  18   10   42 1
  19   11   12 ar
  20   11   43 1
  21   12   13 ar
  22   12   44 1
  23   13   14 ar
  24   13   45 1
  25   14   46 1
  26   16   17 1
  27   16   47 1
  28   16   48 1
  29   17   18 1
  30   17   49 1
  31   17   50 1
  32   18   19 1
  33   19   51 1
  34   19   52 1
  35   19   53 1
  36   20   54 1
  37   20   55 1
  38   20   56 1
  39   21   22 ar
  40   21   26 ar
  41   22   23 ar
  42   22   57 1
  43   23   24 ar
  44   23   40 1
  45   24   25 ar
  46   24   27 1
  47   25   26 ar
  48   25   58 1
  49   26   59 1
  50   27   31 1
  51   28   29 ar
  52   28   37 ar
  53   29   30 ar
  54   29   60 1
  55   30   31 ar
  56   30   61 1
  57   31   32 ar
  58   32   33 ar
  59   32   37 ar
  60   33   34 ar
  61   33   62 1
  62   34   35 ar
  63   34   63 1
  64   35   36 ar
  65   35   38 1
  66   36   37 ar
  67   36   64 1
  68   38   39 1
  69   39   65 1
  70   39   66 1
  71   39   67 1

#	End of record

