#	Name: ASD01120381
#	Creating user name:	WinNT
#	Creation time:	15. 06. 2019 18:59

#	Modifying user name:	WinNT
#	Modification time:	15. 06. 2019 18:59

#	Program:	/corina/corina34_cracker 3.40 0067  02.08.2006

@<TRIPOS>MOLECULE
ASD01120381
  30   31    0    0    0
SMALL
NO_CHARGES


@<TRIPOS>ATOM
   1 C1            -0.0162     1.3436     0.0094 C.2     
   2 N2             0.0021    -0.0041     0.0020 N.am    
   3 O3             1.0284     1.9657     0.0028 O.2     
   4 O4            -2.5831     4.0402     0.0015 O.2     
   5 S5            -1.2149     3.6573     0.0277 S.o2    
   6 O6            -0.3130     4.0652     1.0472 O.2     
   7 C7             1.2155    -0.6828    -0.0132 C.2     
   8 C8            -0.7852     4.8201    -3.7943 C.ar    
   9 N9            -1.1924     2.0015     0.0186 N.am    
  10 C10           -1.3319     4.3964    -2.5974 C.ar    
  11 C11            1.3894     4.8436    -2.7927 C.ar    
  12 C12            1.1717     5.5038    -5.1973 C.3     
  13 C13            0.5756     5.0424    -3.8923 C.ar    
  14 C14           -0.5180     4.1968    -1.4981 C.ar    
  15 C15            0.8426     4.4208    -1.5956 C.ar    
  16 C16            3.1395    -2.2193    -0.0405 C.2     
  17 C17            3.4330    -0.9171    -0.0408 C.2     
  18 S18            1.3856    -2.3839    -0.0240 S.3     
  19 N19            2.3816    -0.1178    -0.0270 N.2     
  20 Br20           4.3882    -3.6393    -0.0589 Br      
  21 H21           -0.8313    -0.5005     0.0073 H       
  22 H22           -1.4205     4.9718    -4.6545 H       
  23 H23           -2.0258     1.5051     0.0198 H       
  24 H24           -2.3949     4.2217    -2.5211 H       
  25 H25            2.4526     5.0170    -2.8694 H       
  26 H26            1.1759     6.5933    -5.2297 H       
  27 H27            2.1935     5.1339    -5.2809 H       
  28 H28            0.5767     5.1180    -6.0251 H       
  29 H29            1.4784     4.2652    -0.7366 H       
  30 H30            4.4477    -0.5472    -0.0498 H       
@<TRIPOS>BOND
   1    1    2 am
   2    1    3 2
   3    1    9 am
   4    2    7 1
   5    2   21 1
   6    4    5 2
   7    5    6 2
   8    5    9 am
   9    5   14 1
  10    7   18 1
  11    7   19 2
  12    8   10 ar
  13    8   13 ar
  14    8   22 1
  15    9   23 1
  16   10   14 ar
  17   10   24 1
  18   11   13 ar
  19   11   15 ar
  20   11   25 1
  21   12   13 1
  22   12   26 1
  23   12   27 1
  24   12   28 1
  25   14   15 ar
  26   15   29 1
  27   16   17 2
  28   16   18 1
  29   16   20 1
  30   17   19 1
  31   17   30 1

#	End of record

