#	Name: ASD03730020
#	Creating user name:	WinNT
#	Creation time:	15. 06. 2019 20:43

#	Modifying user name:	WinNT
#	Modification time:	15. 06. 2019 20:43

#	Program:	/corina/corina34_cracker 3.40 0067  02.08.2006

@<TRIPOS>MOLECULE
ASD03730020
  44   47    0    0    0
SMALL
NO_CHARGES


@<TRIPOS>ATOM
   1 O1            -0.0175     1.4360     0.0099 O.3     
   2 C2             0.0021    -0.0041     0.0020 C.3     
   3 C3             1.3459    -0.3164    -0.6705 C.3     
   4 C4             2.1588     0.9229    -0.4084 C.ar    
   5 C5             1.2617     1.9062     0.0002 C.ar    
   6 C6             1.7491     3.1682     0.3263 C.ar    
   7 C7             3.0998     3.4394     0.2351 C.ar    
   8 C8             3.9820     2.4568    -0.1811 C.ar    
   9 C9             3.5056     1.1975    -0.5021 C.ar    
  10 N10            2.1591    -2.4047    -1.1206 N.am    
  11 C11            1.9848    -1.5477    -0.0950 C.2     
  12 C12            1.1886    -0.5977    -2.1352 C.ar    
  13 C13            0.6785     0.1214    -3.1932 C.ar    
  14 C14            0.6718    -0.4254    -4.4640 C.ar    
  15 C15            1.1789    -1.6956    -4.6696 C.ar    
  16 C16            1.6915    -2.4198    -3.6135 C.ar    
  17 C17            1.7021    -1.8772    -2.3308 C.ar    
  18 O18            2.2854    -1.7342     1.0651 O.2     
  19 C19            2.7588    -3.7341    -0.9825 C.3     
  20 C20            1.6627    -4.7598    -0.6866 C.3     
  21 C21            2.2890    -6.1483    -0.5424 C.3     
  22 C22            1.1929    -7.1739    -0.2465 C.3     
  23 C23            1.8192    -8.5624    -0.1023 C.3     
  24 Cl24           3.6942     5.0185     0.6434 Cl      
  25 Cl25           5.6789     2.8030    -0.3005 Cl      
  26 H26           -0.0224    -0.3969     1.0185 H       
  27 H27           -0.8261    -0.3990    -0.5865 H       
  28 H28            1.0671     3.9398     0.6520 H       
  29 H29            4.1911     0.4286    -0.8265 H       
  30 H30            0.2830     1.1131    -3.0306 H       
  31 H31            0.2712     0.1382    -5.2935 H       
  32 H32            1.1732    -2.1226    -5.6617 H       
  33 H33            2.0853    -3.4112    -3.7817 H       
  34 H34            3.2663    -4.0019    -1.9093 H       
  35 H35            3.4783    -3.7249    -0.1638 H       
  36 H36            1.1552    -4.4921     0.2401 H       
  37 H37            0.9431    -4.7690    -1.5053 H       
  38 H38            2.7965    -6.4160    -1.4692 H       
  39 H39            3.0085    -6.1390     0.2763 H       
  40 H40            0.6854    -6.9062     0.6802 H       
  41 H41            0.4733    -7.1831    -1.0652 H       
  42 H42            2.3267    -8.8301    -1.0290 H       
  43 H43            2.5387    -8.5532     0.7164 H       
  44 H44            1.0383    -9.2931     0.1085 H       
@<TRIPOS>BOND
   1    1    2 1
   2    1    5 1
   3    2    3 1
   4    2   26 1
   5    2   27 1
   6    3    4 1
   7    3   11 1
   8    3   12 1
   9    4    5 ar
  10    4    9 ar
  11    5    6 ar
  12    6    7 ar
  13    6   28 1
  14    7    8 ar
  15    7   24 1
  16    8    9 ar
  17    8   25 1
  18    9   29 1
  19   10   11 am
  20   10   17 1
  21   10   19 1
  22   11   18 2
  23   12   13 ar
  24   12   17 ar
  25   13   14 ar
  26   13   30 1
  27   14   15 ar
  28   14   31 1
  29   15   16 ar
  30   15   32 1
  31   16   17 ar
  32   16   33 1
  33   19   20 1
  34   19   34 1
  35   19   35 1
  36   20   21 1
  37   20   36 1
  38   20   37 1
  39   21   22 1
  40   21   38 1
  41   21   39 1
  42   22   23 1
  43   22   40 1
  44   22   41 1
  45   23   42 1
  46   23   43 1
  47   23   44 1

#	End of record

