#	Name: ASD00170009
#	Creating user name:	WinNT
#	Creation time:	15. 06. 2019 18:31

#	Modifying user name:	WinNT
#	Modification time:	15. 06. 2019 18:31

#	Program:	/corina/corina34_cracker 3.40 0067  02.08.2006

@<TRIPOS>MOLECULE
ASD00170009
  51   54    0    0    0
SMALL
NO_CHARGES


@<TRIPOS>ATOM
   1 C1             0.4443     1.7922     0.7271 C.ar    
   2 C2             3.8836     8.8341    -5.2507 C.ar    
   3 C3             3.5624     7.5244    -4.9623 C.ar    
   4 C4             4.5254     6.6778    -4.4101 C.ar    
   5 C5             5.8087     7.1634    -4.1528 C.ar    
   6 C6             6.1181     8.4750    -4.4450 C.ar    
   7 C7             5.1585     9.3103    -4.9927 C.ar    
   8 C8             4.1872     5.2723    -4.0986 C.2     
   9 C9             5.2268     4.3567    -3.6290 C.2     
  10 O10            3.0432     4.8771    -4.2330 O.2     
  11 Cl11           5.5553    10.9604    -5.3579 Cl      
  12 C12            5.5140     4.1182    -2.2301 C.2     
  13 C13            6.4958     3.2507    -2.0399 C.2     
  14 S14            7.1276     2.6736    -3.5714 S.3     
  15 C15            6.0339     3.6244    -4.4685 C.2     
  16 N16            5.9714     3.6602    -5.8468 N.pl3   
  17 C17            4.7707     4.7899    -1.1044 C.3     
  18 N18            3.4891     4.1057    -0.8868 N.3     
  19 C19            2.8441     4.5754     0.3473 C.3     
  20 C20            1.4793     3.8989     0.4959 C.3     
  21 N21            1.6586     2.4405     0.5210 N.3     
  22 C22            2.3035     1.9708    -0.7131 C.3     
  23 C23            3.6683     2.6473    -0.8617 C.3     
  24 C24            0.4001     0.4023     0.7834 C.ar    
  25 C25           -0.7991    -0.2421     0.9872 C.ar    
  26 C26           -1.9735     0.5014     1.1381 C.ar    
  27 C27           -1.9254     1.8975     1.0815 C.ar    
  28 C28           -0.7221     2.5356     0.8822 C.ar    
  29 C29           -3.2229    -0.1656     1.3497 C.1     
  30 N30           -4.2140    -0.6948     1.5176 N.1     
  31 H31            3.1408     9.4887    -5.6820 H       
  32 H32            2.5679     7.1543    -5.1635 H       
  33 H33            6.5576     6.5131    -3.7254 H       
  34 H34            7.1104     8.8519    -4.2460 H       
  35 H35            6.8594     2.9402    -1.0715 H       
  36 H36            6.6291     3.1809    -6.3747 H       
  37 H37            5.2699     4.1647    -6.2876 H       
  38 H38            5.3681     4.7404    -0.1940 H       
  39 H39            4.5865     5.8329    -1.3619 H       
  40 H40            3.4701     4.3235     1.2034 H       
  41 H41            2.7110     5.6562     0.2994 H       
  42 H42            1.0116     4.2239     1.4253 H       
  43 H43            0.8441     4.1728    -0.3464 H       
  44 H44            2.4366     0.8900    -0.6652 H       
  45 H45            1.6776     2.2227    -1.5692 H       
  46 H46            4.1360     2.3223    -1.7911 H       
  47 H47            4.3036     2.3734    -0.0194 H       
  48 H48            1.3076    -0.1714     0.6668 H       
  49 H49           -0.8328    -1.3207     1.0301 H       
  50 H50           -2.8308     2.4748     1.1973 H       
  51 H51           -0.6842     3.6140     0.8387 H       
@<TRIPOS>BOND
   1    1   24 ar
   2    1   21 1
   3    1   28 ar
   4    2    3 ar
   5    2    7 ar
   6    2   31 1
   7    3    4 ar
   8    3   32 1
   9    4    5 ar
  10    4    8 1
  11    5    6 ar
  12    5   33 1
  13    6    7 ar
  14    6   34 1
  15    7   11 1
  16    8    9 1
  17    8   10 2
  18    9   12 1
  19    9   15 2
  20   12   13 2
  21   12   17 1
  22   13   14 1
  23   13   35 1
  24   14   15 1
  25   15   16 1
  26   16   36 1
  27   16   37 1
  28   17   18 1
  29   17   38 1
  30   17   39 1
  31   18   19 1
  32   18   23 1
  33   19   20 1
  34   19   40 1
  35   19   41 1
  36   20   21 1
  37   20   42 1
  38   20   43 1
  39   21   22 1
  40   22   23 1
  41   22   44 1
  42   22   45 1
  43   23   46 1
  44   23   47 1
  45   24   25 ar
  46   24   48 1
  47   25   26 ar
  48   25   49 1
  49   26   27 ar
  50   26   29 1
  51   27   28 ar
  52   27   50 1
  53   28   51 1
  54   29   30 3

#	End of record

