#	Name: ASD01700026
#	Creating user name:	WinNT
#	Creation time:	15. 06. 2019 19:22

#	Modifying user name:	WinNT
#	Modification time:	15. 06. 2019 19:22

#	Program:	/corina/corina34_cracker 3.40 0067  02.08.2006

@<TRIPOS>MOLECULE
ASD01700026
  68   70    0    0    0
SMALL
NO_CHARGES


@<TRIPOS>ATOM
   1 C1             0.7422     2.6903     0.8937 C.3     
   2 C2             0.9196     1.1870     1.0962 C.3     
   3 C3             1.8762     0.9676     2.2768 C.3     
   4 C4             3.2031     1.5804     1.9088 C.2     
   5 C5             3.2639     2.6566     1.1470 C.2     
   6 C6             2.0567     3.3859     0.6356 C.3     
   7 C7             2.2731     3.6807    -0.8500 C.3     
   8 C8             4.5864     3.1968     0.7561 C.2     
   9 C9             4.6695     4.0745    -0.2290 C.2     
  10 C10            3.4917     4.5939    -0.9954 C.3     
  11 C11            3.1348     5.9883    -0.4768 C.3     
  12 H12            2.0207     4.3489     1.1449 H       
  13 C13            1.0371     4.3795    -1.4200 C.3     
  14 C14            1.4085     5.0904    -2.7229 C.3     
  15 C15            0.1651     5.7610    -3.3103 C.3     
  16 C16           -1.2117     8.2160    -4.0907 C.3     
  17 C17           -1.3991     7.4698    -2.7881 C.2     
  18 O18           -0.3826     6.7015    -2.3441 O.3     
  19 C19            0.5459     6.5160    -4.5869 C.3     
  20 C20           -0.6904     7.2294    -5.1428 C.3     
  21 O21           -1.7044     6.2674    -5.4403 O.3     
  22 C22            2.0497    -0.5308     2.5327 C.3     
  23 O23           -0.1399     2.9134    -0.2378 O.3     
  24 O24           -2.4295     7.5592    -2.1634 O.2     
  25 C25           -1.4601     2.8684     0.0006 C.2     
  26 O26           -1.8660     2.7540     1.1329 O.2     
  27 C27           -2.4361     2.9605    -1.1439 C.3     
  28 C28           -3.8470     2.6554    -0.6369 C.3     
  29 C29           -2.3999     4.3722    -1.7327 C.3     
  30 C30           -2.0522     1.9473    -2.2243 C.3     
  31 C31           -4.8379     2.7489    -1.7990 C.3     
  32 H32            0.2852     3.1166     1.7868 H       
  33 H33           -0.0452     0.7297     1.3154 H       
  34 H34            1.3409     0.7423     0.1946 H       
  35 H35            1.4798     1.4524     3.1689 H       
  36 H36            4.1161     1.1333     2.2734 H       
  37 H37            2.4488     2.7481    -1.3861 H       
  38 H38            5.4784     2.8755     1.2735 H       
  39 H39            5.6492     4.4405    -0.4985 H       
  40 H40            3.7579     4.6659    -2.0500 H       
  41 H41            2.8478     5.9231     0.5728 H       
  42 H42            3.9987     6.6454    -0.5771 H       
  43 H43            2.3037     6.3898    -1.0565 H       
  44 H44            0.2608     3.6404    -1.6179 H       
  45 H45            0.6682     5.1100    -0.6999 H       
  46 H46            2.1677     5.8461    -2.5208 H       
  47 H47            1.7999     4.3635    -3.4346 H       
  48 H48           -0.5814     5.0023    -3.5449 H       
  49 H49           -2.1656     8.6305    -4.4169 H       
  50 H50           -0.4894     9.0205    -3.9522 H       
  51 H51            1.3178     7.2509    -4.3583 H       
  52 H52            0.9227     5.8108    -5.3277 H       
  53 H53           -0.4220     7.7712    -6.0497 H       
  54 H54           -2.5203     6.6512    -5.7896 H       
  55 H55            2.4614    -1.0062     1.6424 H       
  56 H56            2.7295    -0.6799     3.3716 H       
  57 H57            1.0816    -0.9740     2.7664 H       
  58 H58           -3.8728     1.6497    -0.2174 H       
  59 H59           -4.1205     3.3772     0.1327 H       
  60 H60           -1.4029     4.5778    -2.1226 H       
  61 H61           -3.1284     4.4480    -2.5399 H       
  62 H62           -2.6424     5.0965    -0.9551 H       
  63 H63           -2.0780     0.9416    -1.8048 H       
  64 H64           -2.7581     2.0139    -3.0521 H       
  65 H65           -1.0470     2.1647    -2.5855 H       
  66 H66           -4.8121     3.7546    -2.2184 H       
  67 H67           -4.5644     2.0271    -2.5686 H       
  68 H68           -5.8431     2.5316    -1.4377 H       
@<TRIPOS>BOND
   1    1    2 1
   2    1    6 1
   3    1   23 1
   4    1   32 1
   5    2    3 1
   6    2   33 1
   7    2   34 1
   8    3    4 1
   9    3   22 1
  10    3   35 1
  11    4    5 2
  12    4   36 1
  13    5    8 1
  14    5    6 1
  15    6   12 1
  16    6    7 1
  17    7   10 1
  18    7   13 1
  19    7   37 1
  20    8    9 2
  21    8   38 1
  22    9   10 1
  23    9   39 1
  24   10   11 1
  25   10   40 1
  26   11   41 1
  27   11   42 1
  28   11   43 1
  29   13   14 1
  30   13   44 1
  31   13   45 1
  32   14   15 1
  33   14   46 1
  34   14   47 1
  35   15   19 1
  36   15   18 1
  37   15   48 1
  38   16   17 1
  39   16   20 1
  40   16   49 1
  41   16   50 1
  42   17   18 1
  43   17   24 2
  44   19   20 1
  45   19   51 1
  46   19   52 1
  47   20   21 1
  48   20   53 1
  49   21   54 1
  50   22   55 1
  51   22   56 1
  52   22   57 1
  53   23   25 1
  54   25   26 2
  55   25   27 1
  56   27   28 1
  57   27   29 1
  58   27   30 1
  59   28   31 1
  60   28   58 1
  61   28   59 1
  62   29   60 1
  63   29   61 1
  64   29   62 1
  65   30   63 1
  66   30   64 1
  67   30   65 1
  68   31   66 1
  69   31   67 1
  70   31   68 1

#	End of record

