#	Name: ASD01813762
#	Creating user name:	WinNT
#	Creation time:	15. 06. 2019 19:31

#	Modifying user name:	WinNT
#	Modification time:	15. 06. 2019 19:31

#	Program:	/corina/corina34_cracker 3.40 0067  02.08.2006

@<TRIPOS>MOLECULE
ASD01813762
  58   62    0    0    0
SMALL
NO_CHARGES


@<TRIPOS>ATOM
   1 C1            -0.0184     1.5028     0.0103 C.3     
   2 C2             0.0021    -0.0041     0.0020 C.ar    
   3 C3             0.0056    -0.6804    -1.2030 C.ar    
   4 C4             0.0249    -2.0669    -1.1996 C.ar    
   5 C5             0.0400    -2.7236     0.0212 C.ar    
   6 C6             0.0618    -4.2294     0.0774 C.3     
   7 C7             1.4897    -4.7111     0.0894 C.ar    
   8 C8             2.0842    -5.0598    -1.0765 C.ar    
   9 C9             3.4120    -5.5133    -1.1100 C.ar    
  10 C10            4.0670    -5.8941    -2.3681 C.2     
  11 O11            3.4783    -5.8294    -3.4322 O.2     
  12 N12            5.3499    -6.3191    -2.2995 N.am    
  13 C13            5.9907    -6.3846    -1.1057 C.2     
  14 N14            5.4304    -6.0525     0.0207 N.2     
  15 C15            4.1609    -5.6162     0.0765 C.ar    
  16 C16            3.5261    -5.2420     1.3368 C.ar    
  17 C17            4.2111    -5.3189     2.5538 C.ar    
  18 C18            3.5795    -4.9587     3.7083 C.ar    
  19 C19            2.2611    -4.5153     3.6906 C.ar    
  20 C20            1.5656    -4.4287     2.5214 C.ar    
  21 C21            2.1857    -4.7855     1.3142 C.ar    
  22 C22            6.0520    -6.7120    -3.5238 C.3     
  23 H23            5.3875    -6.5961    -4.3801 H       
  24 C24            7.2694    -5.8471    -3.7081 C.3     
  25 C25            7.5746    -5.5672    -5.1921 C.3     
  26 C26            7.3951    -6.8107    -6.0838 C.3     
  27 C27            7.9400    -8.0600    -5.4462 C.3     
  28 C28            6.7894    -8.7758    -4.7094 C.3     
  29 C29            6.5029    -8.1829    -3.4132 C.3     
  30 H30            7.4031    -8.2310    -2.8005 H       
  31 O31            5.4705    -8.9366    -2.7744 O.3     
  32 C32            0.0354    -1.9798     1.1862 C.ar    
  33 N33            0.0219    -0.6619     1.1449 N.ar    
  34 H34            1.0042     1.8801     0.0026 H       
  35 H35           -0.5455     1.8639    -0.8728 H       
  36 H36           -0.5286     1.8543     0.9071 H       
  37 H37           -0.0069    -0.1359    -2.1356 H       
  38 H38            0.0278    -2.6220    -2.1261 H       
  39 H39           -0.4431    -4.5665     0.9827 H       
  40 H40           -0.4505    -4.6330    -0.7960 H       
  41 H41            1.5258    -4.9877    -1.9981 H       
  42 H42            7.0142    -6.7289    -1.0894 H       
  43 H43            5.2348    -5.6620     2.5795 H       
  44 H44            4.1095    -5.0189     4.6474 H       
  45 H45            1.7813    -4.2358     4.6169 H       
  46 H46            0.5426    -4.0826     2.5237 H       
  47 H47            7.1088    -4.8984    -3.1960 H       
  48 H48            8.1281    -6.3468    -3.2596 H       
  49 H49            6.9072    -4.7815    -5.5460 H       
  50 H50            8.6032    -5.2174    -5.2795 H       
  51 H51            6.3328    -6.9511    -6.2834 H       
  52 H52            7.9106    -6.6438    -7.0296 H       
  53 H53            8.3465    -8.7164    -6.2156 H       
  54 H54            8.7226    -7.7966    -4.7347 H       
  55 H55            5.8907    -8.7244    -5.3240 H       
  56 H56            7.0583    -9.8225    -4.5675 H       
  57 H57            5.6778    -9.8750    -2.6668 H       
  58 H58            0.0467    -2.4838     2.1413 H       
@<TRIPOS>BOND
   1    1    2 1
   2    1   34 1
   3    1   35 1
   4    1   36 1
   5    2   33 ar
   6    2    3 ar
   7    3    4 ar
   8    3   37 1
   9    4    5 ar
  10    4   38 1
  11    5    6 1
  12    5   32 ar
  13    6    7 1
  14    6   39 1
  15    6   40 1
  16    7   21 ar
  17    7    8 ar
  18    8    9 ar
  19    8   41 1
  20    9   15 ar
  21    9   10 1
  22   10   11 2
  23   10   12 am
  24   12   13 1
  25   12   22 1
  26   13   14 2
  27   13   42 1
  28   14   15 1
  29   15   16 ar
  30   16   21 ar
  31   16   17 ar
  32   17   18 ar
  33   17   43 1
  34   18   19 ar
  35   18   44 1
  36   19   20 ar
  37   19   45 1
  38   20   21 ar
  39   20   46 1
  40   22   23 1
  41   22   29 1
  42   22   24 1
  43   24   25 1
  44   24   47 1
  45   24   48 1
  46   25   26 1
  47   25   49 1
  48   25   50 1
  49   26   27 1
  50   26   51 1
  51   26   52 1
  52   27   28 1
  53   27   53 1
  54   27   54 1
  55   28   29 1
  56   28   55 1
  57   28   56 1
  58   29   30 1
  59   29   31 1
  60   31   57 1
  61   32   33 ar
  62   32   58 1

#	End of record

