#	Name: ASD02500043
#	Creating user name:	WinNT
#	Creation time:	15. 06. 2019 20:22

#	Modifying user name:	WinNT
#	Modification time:	15. 06. 2019 20:22

#	Program:	/corina/corina34_cracker 3.40 0067  02.08.2006

@<TRIPOS>MOLECULE
ASD02500043
 126  133    0    0    0
SMALL
NO_CHARGES


@<TRIPOS>ATOM
   1 O1             0.8097    -6.9972    -1.1986 O.2     
   2 C2             0.7391    -5.8003    -1.4006 C.2     
   3 N3             1.8345    -5.0276    -1.2609 N.am    
   4 C4             3.0246    -5.5817    -0.7756 C.ar    
   5 C5             4.2483    -5.1143    -1.2391 C.ar    
   6 C6             5.4268    -5.6586    -0.7633 C.ar    
   7 C7             5.3958    -6.6697     0.1750 C.ar    
   8 C8             4.1713    -7.1461     0.6475 C.ar    
   9 C9             2.9826    -6.5930     0.1717 C.ar    
  10 C10            4.1350    -8.2293     1.6529 C.2     
  11 O11            3.0678    -8.6426     2.0629 O.2     
  12 N12            5.2851    -8.7587     2.1149 N.am    
  13 C13            5.2510    -9.8463     2.9939 C.ar    
  14 C14            4.1567   -10.0324     3.8241 C.ar    
  15 C15            4.1274   -11.1190     4.6986 C.ar    
  16 C16            5.2003   -12.0115     4.7316 C.ar    
  17 C17            6.2852   -11.8173     3.9007 C.ar    
  18 C18            6.3119   -10.7438     3.0306 C.ar    
  19 C19            7.5001   -10.5394     2.1265 C.3     
  20 C20            2.9644   -11.3242     5.5877 C.2     
  21 O21            2.0800   -10.4915     5.6336 O.2     
  22 N22            2.8846   -12.4346     6.3474 N.am    
  23 C23            1.7416   -12.6777     7.1096 C.ar    
  24 C24            1.2353   -11.6976     7.9356 C.ar    
  25 C25            0.0955   -11.9301     8.7002 C.ar    
  26 C26           -0.5492   -13.1282     8.6545 C.ar    
  27 C27           -0.0654   -14.1544     7.8248 C.ar    
  28 C28            1.0900   -13.9278     7.0373 C.ar    
  29 C29            1.5715   -14.9531     6.2086 C.ar    
  30 C30            0.9239   -16.1503     6.1719 C.ar    
  31 C31           -0.2127   -16.3743     6.9462 C.ar    
  32 C32           -0.7108   -15.4013     7.7571 C.ar    
  33 S33           -1.0210   -17.9381     6.8693 S.o2    
  34 O34           -2.3649   -17.7155     7.2739 O.2     
  35 O35           -0.6712   -18.5094     5.6161 O.2     
  36 O36           -0.3921   -18.8233     7.9358 O.3     
  37 S37            3.0067   -14.6922     5.2203 S.o2    
  38 O38            2.7548   -13.5273     4.4465 O.2     
  39 O39            4.1223   -14.8207     6.0910 O.2     
  40 O40            3.0933   -15.8508     4.2370 O.3     
  41 S41           -1.9891   -13.3924     9.6351 S.o2    
  42 O42           -3.0797   -12.8547     8.8998 O.2     
  43 O43           -1.9360   -14.7443    10.0697 O.2     
  44 O44           -1.8476   -12.5337    10.8838 O.3     
  45 N45           -0.4332    -5.2472    -1.7697 N.am    
  46 C46           -1.5396    -6.0629    -2.0333 C.ar    
  47 C47           -2.8240    -5.5906    -1.7926 C.ar    
  48 C48           -3.9203    -6.3925    -2.0508 C.ar    
  49 C49           -3.7464    -7.6672    -2.5494 C.ar    
  50 C50           -2.4598    -8.1511    -2.7952 C.ar    
  51 C51           -1.3543    -7.3399    -2.5399 C.ar    
  52 C52           -2.2705    -9.5164    -3.3293 C.2     
  53 O53           -1.1495    -9.9356    -3.5425 O.2     
  54 N54           -3.3406   -10.2964    -3.5799 N.am    
  55 C55           -3.1698   -11.5426    -4.1917 C.ar    
  56 C56           -2.1373   -11.7349    -5.0963 C.ar    
  57 C57           -1.9710   -12.9799    -5.7035 C.ar    
  58 C58           -2.8455   -14.0236    -5.3959 C.ar    
  59 C59           -3.8705   -13.8218    -4.4938 C.ar    
  60 C60           -4.0321   -12.5900    -3.8883 C.ar    
  61 C61           -5.1535   -12.3783    -2.9041 C.3     
  62 C62           -0.8727   -13.1930    -6.6696 C.2     
  63 O63           -0.0922   -12.2927    -6.9110 O.2     
  64 N64           -0.7366   -14.3854    -7.2829 N.am    
  65 C65            0.3519   -14.6168    -8.1245 C.ar    
  66 C66            0.6259   -13.7507    -9.1609 C.ar    
  67 C67            1.7092   -13.9726   -10.0063 C.ar    
  68 C68            2.5262   -15.0479    -9.8345 C.ar    
  69 C69            2.2815   -15.9553    -8.7894 C.ar    
  70 C70            1.1858   -15.7369    -7.9186 C.ar    
  71 C71            0.9432   -16.6433    -6.8749 C.ar    
  72 C72            1.7620   -17.7191    -6.7124 C.ar    
  73 C73            2.8401   -17.9350    -7.5683 C.ar    
  74 C74            3.1085   -17.0740    -8.5878 C.ar    
  75 S75            3.8753   -19.3396    -7.3232 S.o2    
  76 O76            5.1264   -19.0249    -7.9190 O.2     
  77 O77            3.7354   -19.7078    -5.9579 O.2     
  78 O78            3.2860   -20.4815    -8.1388 O.3     
  79 S79           -0.4139   -16.3902    -5.7799 S.o2    
  80 O80           -0.2085   -15.1219    -5.1730 O.2     
  81 O81           -1.5865   -16.7212    -6.5111 O.2     
  82 O82           -0.2946   -17.4230    -4.6684 O.3     
  83 S83            3.8891   -15.3024   -10.9219 S.o2    
  84 O84            4.9528   -14.5011   -10.4263 O.2     
  85 O85            3.9961   -16.7069   -11.1093 O.2     
  86 O86            3.5031   -14.7167   -12.2727 O.3     
  87 H87            1.7980    -4.0873    -1.4966 H       
  88 H88            4.2789    -4.3233    -1.9738 H       
  89 H89            6.3748    -5.2914    -1.1276 H       
  90 H90            6.3185    -7.0928     0.5437 H       
  91 H91            2.0325    -6.9574     0.5334 H       
  92 H92            6.1365    -8.3855     1.8379 H       
  93 H93            3.3298    -9.3383     3.7944 H       
  94 H94            5.1816   -12.8537     5.4074 H       
  95 H95            7.1144   -12.5088     3.9280 H       
  96 H96            7.3355   -11.0647     1.1858 H       
  97 H97            7.6287    -9.4749     1.9306 H       
  98 H98            8.3956   -10.9307     2.6093 H       
  99 H99            3.6219   -13.0647     6.3642 H       
 100 H100           1.7286   -10.7384     7.9906 H       
 101 H101          -0.2833   -11.1472     9.3405 H       
 102 H102           1.2963   -16.9375     5.5331 H       
 103 H103          -1.5926   -15.5890     8.3518 H       
 104 H104          -0.7669   -19.7136     7.9791 H       
 105 H105           3.8535   -15.8049     3.6410 H       
 106 H106          -2.5922   -12.6050    11.4966 H       
 107 H107          -0.5101    -4.2838    -1.8527 H       
 108 H108          -2.9664    -4.5938    -1.4020 H       
 109 H109          -4.9161    -6.0199    -1.8613 H       
 110 H110          -4.6052    -8.2908    -2.7491 H       
 111 H111          -0.3568    -7.7087    -2.7281 H       
 112 H112          -4.2293    -9.9937    -3.3359 H       
 113 H113          -1.4641   -10.9235    -5.3306 H       
 114 H114          -2.7204   -14.9887    -5.8641 H       
 115 H115          -4.5463   -14.6304    -4.2574 H       
 116 H116          -4.8068   -12.6232    -1.9002 H       
 117 H117          -5.4717   -11.3362    -2.9345 H       
 118 H118          -5.9930   -13.0224    -3.1658 H       
 119 H119          -1.3953   -15.0827    -7.1391 H       
 120 H120          -0.0074   -12.8903    -9.3193 H       
 121 H121           1.9047   -13.2804   -10.8120 H       
 122 H122           1.5733   -18.4148    -5.9082 H       
 123 H123           3.9475   -17.2539    -9.2435 H       
 124 H124           3.7830   -21.3084    -8.0742 H       
 125 H125          -0.9976   -17.3713    -4.0063 H       
 126 H126           4.1881   -14.8043   -12.9495 H       
@<TRIPOS>BOND
   1    1    2 2
   2    2    3 am
   3    2   45 am
   4    3    4 1
   5    3   87 1
   6    4    5 ar
   7    4    9 ar
   8    5    6 ar
   9    5   88 1
  10    6    7 ar
  11    6   89 1
  12    7    8 ar
  13    7   90 1
  14    8    9 ar
  15    8   10 1
  16    9   91 1
  17   10   11 2
  18   10   12 am
  19   12   13 1
  20   12   92 1
  21   13   14 ar
  22   13   18 ar
  23   14   15 ar
  24   14   93 1
  25   15   16 ar
  26   15   20 1
  27   16   17 ar
  28   16   94 1
  29   17   18 ar
  30   17   95 1
  31   18   19 1
  32   19   96 1
  33   19   97 1
  34   19   98 1
  35   20   21 2
  36   20   22 am
  37   22   23 1
  38   22   99 1
  39   23   24 ar
  40   23   28 ar
  41   24   25 ar
  42   24  100 1
  43   25   26 ar
  44   25  101 1
  45   26   27 ar
  46   26   41 1
  47   27   28 ar
  48   27   32 ar
  49   28   29 ar
  50   29   30 ar
  51   29   37 1
  52   30   31 ar
  53   30  102 1
  54   31   32 ar
  55   31   33 1
  56   32  103 1
  57   33   34 2
  58   33   35 2
  59   33   36 1
  60   36  104 1
  61   37   38 2
  62   37   39 2
  63   37   40 1
  64   40  105 1
  65   41   42 2
  66   41   43 2
  67   41   44 1
  68   44  106 1
  69   45   46 1
  70   45  107 1
  71   46   47 ar
  72   46   51 ar
  73   47   48 ar
  74   47  108 1
  75   48   49 ar
  76   48  109 1
  77   49   50 ar
  78   49  110 1
  79   50   51 ar
  80   50   52 1
  81   51  111 1
  82   52   53 2
  83   52   54 am
  84   54   55 1
  85   54  112 1
  86   55   56 ar
  87   55   60 ar
  88   56   57 ar
  89   56  113 1
  90   57   58 ar
  91   57   62 1
  92   58   59 ar
  93   58  114 1
  94   59   60 ar
  95   59  115 1
  96   60   61 1
  97   61  116 1
  98   61  117 1
  99   61  118 1
 100   62   63 2
 101   62   64 am
 102   64   65 1
 103   64  119 1
 104   65   66 ar
 105   65   70 ar
 106   66   67 ar
 107   66  120 1
 108   67   68 ar
 109   67  121 1
 110   68   69 ar
 111   68   83 1
 112   69   70 ar
 113   69   74 ar
 114   70   71 ar
 115   71   72 ar
 116   71   79 1
 117   72   73 ar
 118   72  122 1
 119   73   74 ar
 120   73   75 1
 121   74  123 1
 122   75   76 2
 123   75   77 2
 124   75   78 1
 125   78  124 1
 126   79   80 2
 127   79   81 2
 128   79   82 1
 129   82  125 1
 130   83   84 2
 131   83   85 2
 132   83   86 1
 133   86  126 1

#	End of record

