#	Name: ASD03490072
#	Creating user name:	WinNT
#	Creation time:	15. 06. 2019 20:42

#	Modifying user name:	WinNT
#	Modification time:	15. 06. 2019 20:42

#	Program:	/corina/corina34_cracker 3.40 0067  02.08.2006

@<TRIPOS>MOLECULE
ASD03490072
  40   40    0    0    0
SMALL
NO_CHARGES


@<TRIPOS>ATOM
   1 C1            -0.3934     0.1645    -1.1291 C.3     
   2 C2             0.2010    -0.8302    -0.1285 C.3     
   3 O3             1.4034    -1.3840    -0.6666 O.3     
   4 C4             2.4252    -0.4192    -0.9258 C.3     
   5 C5             1.9202     0.5920    -1.9584 C.3     
   6 C6             0.6418     1.2519    -1.4324 C.3     
   7 C7             2.7793     0.3102     0.3717 C.3     
   8 O8             0.1227     2.1438    -2.4209 O.3     
   9 O9             0.4935    -0.1560     1.0970 O.3     
  10 O10            2.7320    -0.6104     1.4637 O.3     
  11 C11            4.1881     0.8962     0.2592 C.3     
  12 O12            4.1017     2.2861    -0.0611 O.3     
  13 C13            4.9198     0.7245     1.5919 C.3     
  14 O14            6.2720     1.1652     1.4532 O.3     
  15 N15            2.9436     1.6161    -2.1819 N.am    
  16 O16            1.8615     2.4083    -3.9492 O.2     
  17 C17            2.8200     2.4794    -3.2095 C.2     
  18 C18            3.8727     3.5329    -3.4393 C.3     
  19 C19           -0.7899    -1.9358     0.1299 C.2     
  20 O20           -0.4657    -3.0882    -0.0342 O.2     
  21 O21           -2.0326    -1.6405     0.5424 O.3     
  22 H22           -0.6543    -0.3571    -2.0500 H       
  23 H23           -1.2866     0.6207    -0.7023 H       
  24 H24            3.3109    -0.9228    -1.3132 H       
  25 H25            1.7060     0.0790    -2.8960 H       
  26 H26            0.8661     1.8063    -0.5211 H       
  27 H27            2.0639     1.1144     0.5433 H       
  28 H28           -0.6886     2.5974    -2.1542 H       
  29 H29            0.7477    -0.7462     1.8196 H       
  30 H30            3.3868    -1.3198     1.4087 H       
  31 H31            4.7365     0.3757    -0.5260 H       
  32 H32            3.6254     2.8122     0.5957 H       
  33 H33            4.4214     1.3171     2.3590 H       
  34 H34            4.9080    -0.3267     1.8801 H       
  35 H35            6.7967     1.0851     2.2615 H       
  36 H36            3.7102     1.6730    -1.5902 H       
  37 H37            4.6499     3.4416    -2.6805 H       
  38 H38            4.3123     3.3978    -4.4276 H       
  39 H39            3.4175     4.5213    -3.3762 H       
  40 H40           -2.6326    -2.3833     0.6951 H       
@<TRIPOS>BOND
   1    1    2 1
   2    1    6 1
   3    1   22 1
   4    1   23 1
   5    2    3 1
   6    2    9 1
   7    2   19 1
   8    3    4 1
   9    4    5 1
  10    4    7 1
  11    4   24 1
  12    5    6 1
  13    5   15 1
  14    5   25 1
  15    6    8 1
  16    6   26 1
  17    7   10 1
  18    7   11 1
  19    7   27 1
  20    8   28 1
  21    9   29 1
  22   10   30 1
  23   11   12 1
  24   11   13 1
  25   11   31 1
  26   12   32 1
  27   13   14 1
  28   13   33 1
  29   13   34 1
  30   14   35 1
  31   15   17 am
  32   15   36 1
  33   16   17 2
  34   17   18 1
  35   18   37 1
  36   18   38 1
  37   18   39 1
  38   19   20 2
  39   19   21 1
  40   21   40 1

#	End of record

