#	Name: ASD03090230
#	Creating user name:	WinNT
#	Creation time:	15. 06. 2019 20:28

#	Modifying user name:	WinNT
#	Modification time:	15. 06. 2019 20:28

#	Program:	/corina/corina34_cracker 3.40 0067  02.08.2006

@<TRIPOS>MOLECULE
ASD03090230
  52   55    0    0    0
SMALL
NO_CHARGES


@<TRIPOS>ATOM
   1 N1             0.4476     1.5144     1.4691 N.ar    
   2 C2             0.4096     0.1963     1.4357 C.ar    
   3 C3             1.5363    -0.5373     1.1252 C.ar    
   4 C4             2.7289     0.1377     0.8435 C.ar    
   5 C5             2.7231     1.5359     0.8903 C.ar    
   6 C6             1.5508     2.1897     1.2102 C.ar    
   7 C7             3.9627    -0.6069     0.5059 C.2     
   8 N8             5.7415    -3.4564    -0.5289 N.pl3   
   9 C9             4.8156    -4.4447    -0.8734 C.ar    
  10 C10            3.5992    -4.0908    -1.4430 C.ar    
  11 C11            2.6865    -5.0703    -1.7827 C.ar    
  12 C12            2.9826    -6.4018    -1.5563 C.ar    
  13 C13            4.1929    -6.7577    -0.9893 C.ar    
  14 C14            5.1120    -5.7840    -0.6521 C.ar    
  15 N15            4.0269    -1.8630     0.1123 N.2     
  16 C16            5.2984    -2.2025    -0.1035 C.2     
  17 N17            6.0668    -1.1676     0.1491 N.2     
  18 N18            5.2219    -0.1167     0.5412 N.pl3   
  19 C19            5.6258     1.2390     0.9223 C.3     
  20 C20            5.7319     2.1107    -0.3306 C.3     
  21 C21            6.1473     3.5052     0.0615 C.2     
  22 O22            6.3397     3.7753     1.2281 O.2     
  23 N23            6.3052     4.4523    -0.8843 N.am    
  24 C24            6.7051     5.8463    -0.6427 C.3     
  25 C25            6.7294     6.5598    -2.0109 C.3     
  26 C26            5.7946     5.6772    -2.8796 C.3     
  27 C27            6.1116     4.2604    -2.3332 C.3     
  28 C28            4.5111    -8.2102    -0.7444 C.3     
  29 F29            3.4380    -9.0008    -1.1693 F       
  30 F30            5.6613    -8.5624    -1.4587 F       
  31 F31            4.7296    -8.4158     0.6220 F       
  32 H32           -0.5158    -0.3157     1.6546 H       
  33 H33            1.4981    -1.6164     1.1003 H       
  34 H34            3.6227     2.0951     0.6798 H       
  35 H35            1.5362     3.2689     1.2485 H       
  36 H36            6.6920    -3.6414    -0.5854 H       
  37 H37            3.3672    -3.0509    -1.6198 H       
  38 H38            1.7404    -4.7958    -2.2253 H       
  39 H39            2.2670    -7.1656    -1.8226 H       
  40 H40            6.0569    -6.0626    -0.2094 H       
  41 H41            4.8830     1.6629     1.5981 H       
  42 H42            6.5935     1.2026     1.4226 H       
  43 H43            6.4746     1.6868    -1.0064 H       
  44 H44            4.7642     2.1470    -0.8309 H       
  45 H45            5.9832     6.3304     0.0150 H       
  46 H46            7.6973     5.8746    -0.1923 H       
  47 H47            6.3341     7.5719    -1.9251 H       
  48 H48            7.7390     6.5724    -2.4214 H       
  49 H49            4.7488     5.9375    -2.7166 H       
  50 H50            6.0546     5.7541    -3.9354 H       
  51 H51            7.0191     3.8703    -2.7941 H       
  52 H52            5.2735     3.5875    -2.5146 H       
@<TRIPOS>BOND
   1    1    2 ar
   2    1    6 ar
   3    2    3 ar
   4    2   32 1
   5    3    4 ar
   6    3   33 1
   7    4    5 ar
   8    4    7 1
   9    5    6 ar
  10    5   34 1
  11    6   35 1
  12    7   15 2
  13    7   18 1
  14    8    9 1
  15    8   16 1
  16    8   36 1
  17    9   10 ar
  18    9   14 ar
  19   10   11 ar
  20   10   37 1
  21   11   12 ar
  22   11   38 1
  23   12   13 ar
  24   12   39 1
  25   13   14 ar
  26   13   28 1
  27   14   40 1
  28   15   16 1
  29   16   17 2
  30   17   18 1
  31   18   19 1
  32   19   20 1
  33   19   41 1
  34   19   42 1
  35   20   21 1
  36   20   43 1
  37   20   44 1
  38   21   22 2
  39   21   23 am
  40   23   24 1
  41   23   27 1
  42   24   25 1
  43   24   45 1
  44   24   46 1
  45   25   26 1
  46   25   47 1
  47   25   48 1
  48   26   27 1
  49   26   49 1
  50   26   50 1
  51   27   51 1
  52   27   52 1
  53   28   29 1
  54   28   30 1
  55   28   31 1

#	End of record

