#	Name: ASD04590362
#	Creating user name:	WinNT
#	Creation time:	15. 06. 2019 20:50

#	Modifying user name:	WinNT
#	Modification time:	15. 06. 2019 20:50

#	Program:	/corina/corina34_cracker 3.40 0067  02.08.2006

@<TRIPOS>MOLECULE
ASD04590362
  37   40    0    0    0
SMALL
NO_CHARGES


@<TRIPOS>ATOM
   1 C1            -0.0168     1.3876     0.0097 C.ar    
   2 C2             0.0021    -0.0041     0.0020 C.ar    
   3 C3             1.2021    -0.6866    -0.0132 C.ar    
   4 C4             2.4052     0.0260    -0.0209 C.ar    
   5 C5             2.3773     1.4317    -0.0130 C.ar    
   6 C6             1.1626     2.1017     0.0022 C.ar    
   7 N7             3.7079    -0.3491    -0.0358 N.2     
   8 C8             4.4734     0.7155    -0.0377 C.2     
   9 N9             3.6984     1.8435    -0.0239 N.pl3   
  10 C10            5.9508     0.6997    -0.0524 C.2     
  11 C11            6.7697    -0.4530    -0.0672 C.2     
  12 C12            8.0614    -0.0422    -0.0785 C.2     
  13 N13            8.0664     1.3168    -0.0712 N.pl3   
  14 N14            6.7373     1.7581    -0.0599 N.2     
  15 N15            6.3245    -1.7849    -0.0698 N.am    
  16 C16            7.2178    -2.7940    -0.0846 C.2     
  17 C17            6.7501    -4.1931    -0.0873 C.ar    
  18 O18            8.4094    -2.5511    -0.0957 O.2     
  19 C19            6.5397    -4.8669     1.1207 C.ar    
  20 C20            6.1009    -6.1776     1.1089 C.ar    
  21 C21            5.8704    -6.8231    -0.0924 C.ar    
  22 C22            6.0763    -6.1647    -1.2911 C.ar    
  23 C23            6.5089    -4.8519    -1.2978 C.ar    
  24 F24            6.7089    -4.2104    -2.4698 F       
  25 F25            6.7651    -4.2385     2.2951 F       
  26 O26           -1.1686    -0.6957     0.0100 O.3     
  27 H27           -0.9612     1.9114     0.0170 H       
  28 H28            1.2116    -1.7666    -0.0187 H       
  29 H29            1.1409     3.1815     0.0079 H       
  30 H30            4.0157     2.7601    -0.0225 H       
  31 H31            8.9319    -0.6813    -0.0905 H       
  32 H32            8.8540     1.8829    -0.0760 H       
  33 H33            5.3741    -1.9786    -0.0609 H       
  34 H34            5.9380    -6.6992     2.0404 H       
  35 H35            5.5280    -7.8474    -0.0944 H       
  36 H36            5.8942    -6.6763    -2.2247 H       
  37 H37           -1.5160    -0.8910    -0.8711 H       
@<TRIPOS>BOND
   1    1    2 ar
   2    1    6 ar
   3    1   27 1
   4    2    3 ar
   5    2   26 1
   6    3    4 ar
   7    3   28 1
   8    4    5 ar
   9    4    7 1
  10    5    6 ar
  11    5    9 1
  12    6   29 1
  13    7    8 2
  14    8    9 1
  15    8   10 1
  16    9   30 1
  17   10   11 1
  18   10   14 2
  19   11   12 2
  20   11   15 1
  21   12   13 1
  22   12   31 1
  23   13   14 1
  24   13   32 1
  25   15   16 am
  26   15   33 1
  27   16   17 1
  28   16   18 2
  29   17   19 ar
  30   17   23 ar
  31   19   20 ar
  32   19   25 1
  33   20   21 ar
  34   20   34 1
  35   21   22 ar
  36   21   35 1
  37   22   23 ar
  38   22   36 1
  39   23   24 1
  40   26   37 1

#	End of record

