#	Name: ASD01880107
#	Creating user name:	WinNT
#	Creation time:	15. 06. 2019 19:40

#	Modifying user name:	WinNT
#	Modification time:	15. 06. 2019 19:40

#	Program:	/corina/corina34_cracker 3.40 0067  02.08.2006

@<TRIPOS>MOLECULE
ASD01880107
  61   65    0    0    0
SMALL
NO_CHARGES


@<TRIPOS>ATOM
   1 C1            -0.0167     1.3776     0.0096 C.ar    
   2 C2             0.0021    -0.0041     0.0020 C.ar    
   3 C3            -1.1810    -0.7162     0.0095 C.ar    
   4 C4            -2.4037    -0.0455     0.0248 C.ar    
   5 C5            -2.4326     1.3447     0.0330 C.ar    
   6 C6            -1.2364     2.0614     0.0308 C.ar    
   7 C7            -3.6728    -0.8147     0.0318 C.ar    
   8 C8            -4.8951    -0.1467     0.0470 C.ar    
   9 C9            -6.0726    -0.8672     0.0535 C.ar    
  10 C10           -6.0402    -2.2498     0.0449 C.ar    
  11 C11           -4.8291    -2.9183     0.0298 C.ar    
  12 C12           -3.6461    -2.2079     0.0173 C.ar    
  13 C13           -4.8018    -4.4250     0.0210 C.3     
  14 O14           -4.8058    -4.8936    -1.3290 O.3     
  15 C15           -4.7831    -6.2373    -1.5146 C.ar    
  16 C16           -4.7575    -7.0892    -0.4166 C.ar    
  17 C17           -4.7348    -8.4560    -0.5965 C.ar    
  18 C18           -4.7375    -8.9906    -1.8870 C.ar    
  19 C19           -4.7635    -8.1223    -2.9943 C.ar    
  20 C20           -4.7914    -6.7603    -2.8026 C.ar    
  21 C21           -4.7051    -9.5772     0.4147 C.3     
  22 C22           -4.6894   -10.8828    -0.3921 C.3     
  23 C23           -4.7108   -10.4580    -1.8403 C.2     
  24 C24           -3.4165   -11.6765    -0.0913 C.3     
  25 C25           -3.3508   -12.0193     1.4073 C.3     
  26 C26           -3.3361   -13.5587     1.5070 C.3     
  27 C27           -2.7891   -14.0230     0.1344 C.3     
  28 C28           -3.4394   -13.0195    -0.8500 C.3     
  29 O29           -4.7063   -11.2004    -2.7996 O.2     
  30 C30           -4.8197    -5.8337    -3.9907 C.3     
  31 Cl31          -4.7673    -8.7711    -4.6045 Cl      
  32 Cl32           1.4752     2.2653     0.0001 Cl      
  33 C33           -1.2576     3.5379     0.0394 C.2     
  34 O34           -0.2145     4.1604     0.0375 O.2     
  35 O35           -2.4339     4.1946     0.0495 O.3     
  36 H36            0.9458    -0.5291    -0.0102 H       
  37 H37           -1.1594    -1.7960     0.0031 H       
  38 H38           -3.3777     1.8673     0.0445 H       
  39 H39           -4.9215     0.9330     0.0541 H       
  40 H40           -7.0208    -0.3503     0.0657 H       
  41 H41           -6.9637    -2.8096     0.0504 H       
  42 H42           -2.7012    -2.7308     0.0055 H       
  43 H43           -3.9006    -4.7750     0.5244 H       
  44 H44           -5.6802    -4.8074     0.5409 H       
  45 H45           -4.7549    -6.6785     0.5823 H       
  46 H46           -3.8068    -9.5049     1.0278 H       
  47 H47           -5.5936    -9.5369     1.0448 H       
  48 H48           -5.5713   -11.4802    -0.1608 H       
  49 H49           -2.5391   -11.0982    -0.3809 H       
  50 H50           -2.4411   -11.6081     1.8449 H       
  51 H51           -4.2258   -11.6203     1.9203 H       
  52 H52           -2.6748   -13.8826     2.3106 H       
  53 H53           -4.3449   -13.9404     1.6645 H       
  54 H54           -1.7023   -13.9439     0.1048 H       
  55 H55           -3.1094   -15.0416    -0.0846 H       
  56 H56           -4.4649   -13.3141    -1.0731 H       
  57 H57           -2.8535   -12.9500    -1.7665 H       
  58 H58           -5.8540    -5.6323    -4.2698 H       
  59 H59           -4.3240    -4.8977    -3.7334 H       
  60 H60           -4.3017    -6.3009    -4.8283 H       
  61 H61           -2.3972     5.1609     0.0549 H       
@<TRIPOS>BOND
   1    1    2 ar
   2    1   32 1
   3    1    6 ar
   4    2    3 ar
   5    2   36 1
   6    3    4 ar
   7    3   37 1
   8    4    5 ar
   9    4    7 1
  10    5    6 ar
  11    5   38 1
  12    6   33 1
  13    7    8 ar
  14    7   12 ar
  15    8    9 ar
  16    8   39 1
  17    9   10 ar
  18    9   40 1
  19   10   11 ar
  20   10   41 1
  21   11   12 ar
  22   11   13 1
  23   12   42 1
  24   13   14 1
  25   13   43 1
  26   13   44 1
  27   14   15 1
  28   15   16 ar
  29   15   20 ar
  30   16   17 ar
  31   16   45 1
  32   17   18 ar
  33   17   21 1
  34   18   19 ar
  35   18   23 1
  36   19   20 ar
  37   19   31 1
  38   20   30 1
  39   21   22 1
  40   21   46 1
  41   21   47 1
  42   22   23 1
  43   22   24 1
  44   22   48 1
  45   23   29 2
  46   24   25 1
  47   24   28 1
  48   24   49 1
  49   25   26 1
  50   25   50 1
  51   25   51 1
  52   26   27 1
  53   26   52 1
  54   26   53 1
  55   27   28 1
  56   27   54 1
  57   27   55 1
  58   28   56 1
  59   28   57 1
  60   30   58 1
  61   30   59 1
  62   30   60 1
  63   33   34 2
  64   33   35 1
  65   35   61 1

#	End of record

