#	Name: ASD01882198
#	Creating user name:	WinNT
#	Creation time:	15. 06. 2019 19:44

#	Modifying user name:	WinNT
#	Modification time:	15. 06. 2019 19:44

#	Program:	/corina/corina34_cracker 3.40 0067  02.08.2006

@<TRIPOS>MOLECULE
ASD01882198
  52   53    0    0    0
SMALL
NO_CHARGES


@<TRIPOS>ATOM
   1 N1            -0.2038     0.9507    -0.6382 N.am    
   2 C2            -0.1308    -0.4919    -0.3694 C.3     
   3 C3             0.7181    -0.7172     0.8858 C.3     
   4 C4             2.0794    -0.0419     0.7042 C.3     
   5 C5             1.8827     1.4643     0.5179 C.3     
   6 C6             1.0471     1.7143    -0.7414 C.3     
   7 C7            -1.3956     1.5609    -0.7928 C.2     
   8 O8            -2.4229     0.9173    -0.7101 O.2     
   9 O9            -1.4478     2.8836    -1.0387 O.3     
  10 C10            2.9297    -0.2903     1.9233 C.ar    
  11 C11            4.1350    -0.9564     1.8014 C.ar    
  12 C12            4.9149    -1.1843     2.9195 C.ar    
  13 C13            4.4898    -0.7457     4.1599 C.ar    
  14 C14            3.2852    -0.0790     4.2816 C.ar    
  15 C15            2.5072     0.1528     3.1625 C.ar    
  16 C16            4.5984    -1.4345     0.4494 C.3     
  17 C17            3.5795    -2.4249    -0.1180 C.3     
  18 C18            4.7294    -0.2393    -0.4968 C.3     
  19 O19            5.8669    -2.0791     0.5811 O.3     
  20 C20           -2.7653     3.4737    -1.1940 C.3     
  21 C21           -3.5734     3.2617     0.0878 C.3     
  22 C22           -2.6239     4.9727    -1.4657 C.3     
  23 C23           -3.4870     2.8085    -2.3677 C.3     
  24 H24           -1.1345    -0.8847    -0.2071 H       
  25 H25            0.3295    -0.9988    -1.2175 H       
  26 H26            0.2111    -0.2874     1.7498 H       
  27 H27            0.8603    -1.7865     1.0417 H       
  28 H28            2.5752    -0.4548    -0.1744 H       
  29 H29            1.3649     1.8736     1.3853 H       
  30 H30            2.8540     1.9477     0.4120 H       
  31 H31            1.6034     1.3874    -1.6199 H       
  32 H32            0.8206     2.7773    -0.8246 H       
  33 H33            5.8561    -1.7052     2.8244 H       
  34 H34            5.0988    -0.9243     5.0337 H       
  35 H35            2.9530     0.2634     5.2506 H       
  36 H36            1.5677     0.6770     3.2570 H       
  37 H37            2.5820    -1.9884    -0.0685 H       
  38 H38            3.8278    -2.6470    -1.1558 H       
  39 H39            3.6029    -3.3449     0.4661 H       
  40 H40            5.5727     0.3782    -0.1875 H       
  41 H41            4.8943    -0.5969    -1.5132 H       
  42 H42            3.8145     0.3522    -0.4638 H       
  43 H43            6.5627    -1.5091     0.9361 H       
  44 H44           -3.0592     3.7356     0.9239 H       
  45 H45           -4.5624     3.7047    -0.0288 H       
  46 H46           -3.6741     2.1938     0.2813 H       
  47 H47           -2.0482     5.1238    -2.3789 H       
  48 H48           -3.6129     5.4158    -1.5823 H       
  49 H49           -2.1098     5.4466    -0.6295 H       
  50 H50           -3.5877     1.7406    -2.1742 H       
  51 H51           -4.4760     3.2515    -2.4843 H       
  52 H52           -2.9113     2.9595    -3.2809 H       
@<TRIPOS>BOND
   1    1    2 1
   2    1    6 1
   3    1    7 am
   4    2    3 1
   5    2   24 1
   6    2   25 1
   7    3    4 1
   8    3   26 1
   9    3   27 1
  10    4    5 1
  11    4   10 1
  12    4   28 1
  13    5    6 1
  14    5   29 1
  15    5   30 1
  16    6   31 1
  17    6   32 1
  18    7    8 2
  19    7    9 1
  20    9   20 1
  21   10   11 ar
  22   10   15 ar
  23   11   12 ar
  24   11   16 1
  25   12   13 ar
  26   12   33 1
  27   13   14 ar
  28   13   34 1
  29   14   15 ar
  30   14   35 1
  31   15   36 1
  32   16   17 1
  33   16   18 1
  34   16   19 1
  35   17   37 1
  36   17   38 1
  37   17   39 1
  38   18   40 1
  39   18   41 1
  40   18   42 1
  41   19   43 1
  42   20   21 1
  43   20   23 1
  44   20   22 1
  45   21   44 1
  46   21   45 1
  47   21   46 1
  48   22   47 1
  49   22   48 1
  50   22   49 1
  51   23   50 1
  52   23   51 1
  53   23   52 1

#	End of record

