#	Name: ASD01910789
#	Creating user name:	WinNT
#	Creation time:	15. 06. 2019 19:56

#	Modifying user name:	WinNT
#	Modification time:	15. 06. 2019 19:56

#	Program:	/corina/corina34_cracker 3.40 0067  02.08.2006

@<TRIPOS>MOLECULE
ASD01910789
  54   57    0    0    0
SMALL
NO_CHARGES


@<TRIPOS>ATOM
   1 C1             0.0753     1.7553    -0.3704 C.ar    
   2 C2             0.0178     0.3707    -0.3965 C.ar    
   3 N3             1.1433    -0.3228    -0.3508 N.ar    
   4 C4             2.3150     0.2917    -0.2808 C.ar    
   5 N5             2.4046     1.6133    -0.2541 N.ar    
   6 C6             1.3175     2.3657    -0.2969 C.ar    
   7 N7             3.4730    -0.4651    -0.2341 N.3     
   8 C8             4.6614     0.3952    -0.1592 C.3     
   9 C9             5.9025    -0.4730     0.0728 C.3     
  10 N10            5.9495    -1.5092    -0.9700 N.am    
  11 C11            4.7453    -2.3224    -1.1977 C.3     
  12 C12            3.5497    -1.3813    -1.3797 C.3     
  13 C13            7.0665    -1.7084    -1.6974 C.2     
  14 C14            7.1353    -2.8346    -2.6532 C.ar    
  15 O15            8.0174    -0.9624    -1.5677 O.2     
  16 C16            7.7574    -2.6640    -3.8920 C.ar    
  17 C17            7.8234    -3.7144    -4.7863 C.ar    
  18 C18            7.2760    -4.9396    -4.4636 C.ar    
  19 C19            6.6501    -5.1250    -3.2269 C.ar    
  20 C20            6.5849    -4.0696    -2.3175 C.ar    
  21 C21            6.0821    -6.3965    -2.8932 C.1     
  22 C22            5.6164    -7.4388    -2.6195 C.1     
  23 C23            5.0483    -8.7103    -2.2858 C.ar    
  24 C24            4.4226    -8.8971    -1.0504 C.ar    
  25 C25            3.8773   -10.1244    -0.7361 C.ar    
  26 C26            3.9492   -11.1693    -1.6404 C.ar    
  27 C27            4.5678   -10.9918    -2.8655 C.ar    
  28 C28            5.1120    -9.7684    -3.1962 C.ar    
  29 C29           -1.3108    -0.3361    -0.4755 C.3     
  30 C30            1.4283     3.8683    -0.2666 C.3     
  31 H31           -0.8281     2.3458    -0.4109 H       
  32 H32            4.7717     0.9452    -1.0938 H       
  33 H33            4.5499     1.0984     0.6661 H       
  34 H34            6.7981     0.1456     0.0149 H       
  35 H35            5.8420    -0.9437     1.0541 H       
  36 H36            4.8758    -2.9264    -2.0956 H       
  37 H37            4.5735    -2.9708    -0.3386 H       
  38 H38            2.6320    -1.9665    -1.4396 H       
  39 H39            3.6755    -0.8066    -2.2973 H       
  40 H40            8.1876    -1.7080    -4.1514 H       
  41 H41            8.3054    -3.5763    -5.7429 H       
  42 H42            7.3308    -5.7567    -5.1678 H       
  43 H43            6.1029    -4.2067    -1.3608 H       
  44 H44            4.3664    -8.0827    -0.3434 H       
  45 H45            3.3934   -10.2703     0.2183 H       
  46 H46            3.5208   -12.1282    -1.3887 H       
  47 H47            4.6208   -11.8121    -3.5660 H       
  48 H48            5.5945    -9.6313    -4.1526 H       
  49 H49           -1.5793    -0.4893    -1.5208 H       
  50 H50           -1.2395    -1.3010     0.0264 H       
  51 H51           -2.0747     0.2708     0.0106 H       
  52 H52            1.5071     4.2474    -1.2854 H       
  53 H53            0.5426     4.2884     0.2100 H       
  54 H54            2.3154     4.1559     0.2977 H       
@<TRIPOS>BOND
   1    1    2 ar
   2    1    6 ar
   3    1   31 1
   4    2    3 ar
   5    2   29 1
   6    3    4 ar
   7    4    5 ar
   8    4    7 1
   9    5    6 ar
  10    6   30 1
  11    7    8 1
  12    7   12 1
  13    8    9 1
  14    8   32 1
  15    8   33 1
  16    9   10 1
  17    9   34 1
  18    9   35 1
  19   10   11 1
  20   10   13 am
  21   11   12 1
  22   11   36 1
  23   11   37 1
  24   12   38 1
  25   12   39 1
  26   13   14 1
  27   13   15 2
  28   14   16 ar
  29   14   20 ar
  30   16   17 ar
  31   16   40 1
  32   17   18 ar
  33   17   41 1
  34   18   19 ar
  35   18   42 1
  36   19   20 ar
  37   19   21 1
  38   20   43 1
  39   21   22 3
  40   22   23 1
  41   23   24 ar
  42   23   28 ar
  43   24   25 ar
  44   24   44 1
  45   25   26 ar
  46   25   45 1
  47   26   27 ar
  48   26   46 1
  49   27   28 ar
  50   27   47 1
  51   28   48 1
  52   29   49 1
  53   29   50 1
  54   29   51 1
  55   30   52 1
  56   30   53 1
  57   30   54 1

#	End of record

