#	Name: ASD00192054
#	Creating user name:	WinNT
#	Creation time:	15. 06. 2019 18:33

#	Modifying user name:	WinNT
#	Modification time:	15. 06. 2019 18:33

#	Program:	/corina/corina34_cracker 3.40 0067  02.08.2006

@<TRIPOS>MOLECULE
ASD00192054
  27   30    0    0    0
SMALL
NO_CHARGES


@<TRIPOS>ATOM
   1 N1            -0.0158     1.3151     0.0093 N.ar    
   2 C2             0.0021    -0.0041     0.0020 C.ar    
   3 C3             1.2650    -0.7368    -0.0140 C.ar    
   4 C4             2.4599    -0.0093    -0.0215 C.ar    
   5 C5             2.3763     1.4443    -0.0129 C.ar    
   6 C6             3.5273     2.2404    -0.0191 C.ar    
   7 C7             3.4112     3.5996    -0.0103 C.ar    
   8 C8             2.1591     4.2054     0.0054 C.ar    
   9 C9             1.0190     3.4597     0.0123 C.ar    
  10 C10            1.0986     2.0566     0.0026 C.ar    
  11 C11            2.8980    -2.1634    -0.0372 C.2     
  12 N12            1.6001    -2.0463    -0.0242 N.2     
  13 N13            3.4722    -0.9295    -0.0361 N.pl3   
  14 O14           -1.5070    -1.9156    -0.6187 O.3     
  15 C15           -1.2694    -0.7479     0.0107 C.2     
  16 C16           -2.4095    -0.3753     0.6567 C.2     
  17 C17           -3.3677    -1.3729     0.3955 C.2     
  18 C18           -2.7736    -2.2967    -0.3888 C.2     
  19 Cl19          -5.0043    -1.4085     0.9735 Cl      
  20 H20            4.5043     1.7802    -0.0306 H       
  21 H21            4.3009     4.2119    -0.0151 H       
  22 H22            2.0898     5.2832     0.0125 H       
  23 H23            0.0549     3.9463     0.0251 H       
  24 H24            3.4371    -3.0992    -0.0471 H       
  25 H25            4.4231    -0.7379    -0.0446 H       
  26 H26           -2.5508     0.5133     1.2539 H       
  27 H27           -3.2397    -3.1941    -0.7682 H       
@<TRIPOS>BOND
   1    1    2 ar
   2    1   10 ar
   3    2    3 ar
   4    2   15 1
   5    3    4 ar
   6    3   12 1
   7    4    5 ar
   8    4   13 1
   9    5    6 ar
  10    5   10 ar
  11    6    7 ar
  12    6   20 1
  13    7    8 ar
  14    7   21 1
  15    8    9 ar
  16    8   22 1
  17    9   10 ar
  18    9   23 1
  19   11   12 2
  20   11   13 1
  21   11   24 1
  22   13   25 1
  23   14   15 1
  24   14   18 1
  25   15   16 2
  26   16   17 1
  27   16   26 1
  28   17   18 2
  29   17   19 1
  30   18   27 1

#	End of record

