#	Name: ASD01900527
#	Creating user name:	WinNT
#	Creation time:	15. 06. 2019 19:52

#	Modifying user name:	WinNT
#	Modification time:	15. 06. 2019 19:52

#	Program:	/corina/corina34_cracker 3.40 0067  02.08.2006

@<TRIPOS>MOLECULE
ASD01900527
  26   28    0    0    0
SMALL
NO_CHARGES


@<TRIPOS>ATOM
   1 O1             0.0261     1.4081     0.3653 O.3     
   2 N2             0.0459    -0.0051     0.3612 N.2     
   3 C3             1.2466    -0.4258     0.0739 C.2     
   4 C4             2.0882     0.7635    -0.1282 C.ar    
   5 C5             1.2565     1.8762     0.0705 C.ar    
   6 C6             1.7828     3.1557    -0.0566 C.ar    
   7 C7             3.1132     3.3236    -0.3756 C.ar    
   8 C8             3.9359     2.2243    -0.5725 C.ar    
   9 C9             3.4328     0.9482    -0.4502 C.ar    
  10 N10            1.6545    -1.7496    -0.0224 N.pl3   
  11 C11            0.7163    -2.7796     0.0868 C.ar    
  12 C12           -0.5992    -2.5674    -0.3061 C.ar    
  13 C13           -1.5242    -3.5883    -0.1971 C.ar    
  14 C14           -1.1406    -4.8207     0.3032 C.ar    
  15 C15            0.1680    -5.0341     0.6947 C.ar    
  16 C16            1.0985    -4.0194     0.5829 C.ar    
  17 Cl17          -3.1685    -3.3249    -0.6876 Cl      
  18 H18            1.1501     4.0179     0.0941 H       
  19 H19            3.5185     4.3199    -0.4734 H       
  20 H20            4.9764     2.3699    -0.8228 H       
  21 H21            4.0761     0.0944    -0.6036 H       
  22 H22            2.5907    -1.9594    -0.1655 H       
  23 H23           -0.8986    -1.6057    -0.6958 H       
  24 H24           -1.8652    -5.6170     0.3881 H       
  25 H25            0.4640    -5.9968     1.0846 H       
  26 H26            2.1214    -4.1885     0.8853 H       
@<TRIPOS>BOND
   1    1    2 1
   2    1    5 1
   3    2    3 2
   4    3    4 1
   5    3   10 1
   6    4    5 ar
   7    4    9 ar
   8    5    6 ar
   9    6    7 ar
  10    6   18 1
  11    7    8 ar
  12    7   19 1
  13    8    9 ar
  14    8   20 1
  15    9   21 1
  16   10   11 1
  17   10   22 1
  18   11   12 ar
  19   11   16 ar
  20   12   13 ar
  21   12   23 1
  22   13   14 ar
  23   13   17 1
  24   14   15 ar
  25   14   24 1
  26   15   16 ar
  27   15   25 1
  28   16   26 1

#	End of record

