#	Name: ASD01913348
#	Creating user name:	WinNT
#	Creation time:	15. 06. 2019 20:01

#	Modifying user name:	WinNT
#	Modification time:	15. 06. 2019 20:01

#	Program:	/corina/corina34_cracker 3.40 0067  02.08.2006

@<TRIPOS>MOLECULE
ASD01913348
  38   40    0    0    0
SMALL
NO_CHARGES


@<TRIPOS>ATOM
   1 C1            -0.0166     1.3765     0.0096 C.2     
   2 C2             0.0021    -0.0041     0.0020 C.2     
   3 C3             1.2499    -0.6727    -0.0135 C.2     
   4 N4             2.3635     0.0159    -0.0200 N.2     
   5 C5             2.3515     1.3566    -0.0127 C.2     
   6 N6             1.1686     2.0507     0.0019 N.pl3   
   7 C7             3.3712     2.2994    -0.0169 C.2     
   8 C8             2.7832     3.5557    -0.0048 C.2     
   9 N9             1.4768     3.4160     0.0065 N.2     
  10 C10            3.5232     4.8685    -0.0040 C.3     
  11 C11           -1.2215    -0.7480     0.0102 C.1     
  12 C12           -2.2246    -1.3579     0.0169 C.1     
  13 C13           -3.4482    -2.1018     0.0250 C.ar    
  14 C14           -3.4202    -3.4989     0.0172 C.ar    
  15 C15           -4.6022    -4.2091     0.0251 C.ar    
  16 C16           -5.8152    -3.5409     0.0403 C.ar    
  17 C17           -5.8501    -2.1563     0.0480 C.ar    
  18 C18           -4.6755    -1.4339     0.0466 C.ar    
  19 C19            4.0865     5.1372    -1.4010 C.3     
  20 C20            2.5632     5.9948     0.3841 C.3     
  21 C21            4.6712     4.8063     1.0055 C.3     
  22 Cl22          -7.2985    -4.4427     0.0489 Cl      
  23 H23           -0.9539     1.9131     0.0170 H       
  24 H24            1.2833    -1.7522    -0.0196 H       
  25 H25            4.4310     2.0918    -0.0273 H       
  26 H26           -2.4750    -4.0213     0.0047 H       
  27 H27           -4.5820    -5.2889     0.0191 H       
  28 H28           -6.7994    -1.6414     0.0595 H       
  29 H29           -4.7041    -0.3543     0.0530 H       
  30 H30            3.2687     5.1815    -2.1202 H       
  31 H31            4.6218     6.0867    -1.4004 H       
  32 H32            4.7705     4.3347    -1.6774 H       
  33 H33            2.1619     5.8034     1.3792 H       
  34 H34            3.0984     6.9444     0.3846 H       
  35 H35            1.7454     6.0391    -0.3352 H       
  36 H36            5.3551     4.0038     0.7290 H       
  37 H37            5.2064     5.7558     1.0061 H       
  38 H38            4.2698     4.6149     2.0007 H       
@<TRIPOS>BOND
   1    1    2 2
   2    1    6 1
   3    1   23 1
   4    2    3 1
   5    2   11 1
   6    3    4 2
   7    3   24 1
   8    4    5 1
   9    5    6 1
  10    5    7 2
  11    6    9 1
  12    7    8 1
  13    7   25 1
  14    8    9 2
  15    8   10 1
  16   10   19 1
  17   10   20 1
  18   10   21 1
  19   11   12 3
  20   12   13 1
  21   13   14 ar
  22   13   18 ar
  23   14   15 ar
  24   14   26 1
  25   15   16 ar
  26   15   27 1
  27   16   17 ar
  28   16   22 1
  29   17   18 ar
  30   17   28 1
  31   18   29 1
  32   19   30 1
  33   19   31 1
  34   19   32 1
  35   20   33 1
  36   20   34 1
  37   20   35 1
  38   21   36 1
  39   21   37 1
  40   21   38 1

#	End of record

