#	Name: ASD01917572
#	Creating user name:	WinNT
#	Creation time:	15. 06. 2019 20:09

#	Modifying user name:	WinNT
#	Modification time:	15. 06. 2019 20:09

#	Program:	/corina/corina34_cracker 3.40 0067  02.08.2006

@<TRIPOS>MOLECULE
ASD01917572
  26   27    0    0    0
SMALL
NO_CHARGES


@<TRIPOS>ATOM
   1 C1            -0.0161     1.3355     0.0094 C.2     
   2 N2             0.0021    -0.0041     0.0020 N.2     
   3 C3             1.1377    -0.6611    -0.0124 C.2     
   4 C4             2.3568     0.0336    -0.0203 C.2     
   5 C5             2.3511     1.3895    -0.0130 C.2     
   6 N6             1.1553     2.0488     0.0020 N.pl3   
   7 N7             0.8241     3.4083     0.0120 N.2     
   8 C8            -0.4848     3.5262     0.0249 C.2     
   9 C9            -1.0517     2.2609     0.0186 C.2     
  10 C10           -1.2464     4.8264     0.0391 C.3     
  11 C11           -1.8128     5.0705     1.4393 C.3     
  12 C12           -0.3055     5.9727    -0.3374 C.3     
  13 C13           -2.3941     4.7563    -0.9702 C.3     
  14 Br14           3.9937    -0.9130    -0.0404 Br      
  15 H15            1.1341    -1.7411    -0.0178 H       
  16 H16            3.2798     1.9407    -0.0185 H       
  17 H17           -2.1079     2.0356     0.0216 H       
  18 H18           -0.9951     5.1205     2.1583 H       
  19 H19           -2.3637     6.0110     1.4495 H       
  20 H20           -2.4831     4.2539     1.7075 H       
  21 H21            0.0980     5.7989    -1.3349 H       
  22 H22           -0.8564     6.9132    -0.3272 H       
  23 H23            0.5121     6.0227     0.3816 H       
  24 H24           -3.0644     3.9396    -0.7020 H       
  25 H25           -2.9450     5.6968    -0.9600 H       
  26 H26           -1.9906     4.5824    -1.9678 H       
@<TRIPOS>BOND
   1    1    2 1
   2    1    6 1
   3    1    9 2
   4    2    3 2
   5    3    4 1
   6    3   15 1
   7    4    5 2
   8    4   14 1
   9    5    6 1
  10    5   16 1
  11    6    7 1
  12    7    8 2
  13    8    9 1
  14    8   10 1
  15    9   17 1
  16   10   11 1
  17   10   13 1
  18   10   12 1
  19   11   18 1
  20   11   19 1
  21   11   20 1
  22   12   21 1
  23   12   22 1
  24   12   23 1
  25   13   24 1
  26   13   25 1
  27   13   26 1

#	End of record

