#	Name: ASD01913172
#	Creating user name:	WinNT
#	Creation time:	15. 06. 2019 20:01

#	Modifying user name:	WinNT
#	Modification time:	15. 06. 2019 20:01

#	Program:	/corina/corina34_cracker 3.40 0067  02.08.2006

@<TRIPOS>MOLECULE
ASD01913172
  48   51    0    0    0
SMALL
NO_CHARGES


@<TRIPOS>ATOM
   1 C1             0.7303     1.1796    -1.0054 C.3     
   2 N2             0.3535    -0.1342    -0.4730 N.am    
   3 C3             1.3091    -0.7960     0.4308 C.3     
   4 C4             2.5768    -1.0986    -0.3667 C.3     
   5 C5             3.0153     0.1078    -1.1544 C.ar    
   6 C6             4.3351     0.1484    -1.5885 C.ar    
   7 C7             4.8003     1.2195    -2.3216 C.ar    
   8 C8             3.9471     2.2644    -2.6304 C.ar    
   9 C9             2.6365     2.2278    -2.1974 C.ar    
  10 C10            2.1693     1.1514    -1.4557 C.ar    
  11 C11           -0.8201    -0.7121    -0.7975 C.2     
  12 C12           -1.8127     0.0319    -1.5982 C.ar    
  13 C13           -2.6084    -0.6421    -2.5236 C.ar    
  14 C14           -3.5436     0.0652    -3.2758 C.ar    
  15 C15           -3.6777     1.4518    -3.0960 C.ar    
  16 C16           -2.8802     2.1120    -2.1725 C.ar    
  17 C17           -1.9590     1.4117    -1.4242 C.ar    
  18 O18           -1.0613    -1.8460    -0.4311 O.2     
  19 C19           -4.3648    -0.6188    -4.2289 C.1     
  20 C20           -5.0380    -1.1795    -5.0104 C.1     
  21 C21           -5.8592    -1.8634    -5.9635 C.ar    
  22 C22           -6.7951    -1.1464    -6.7142 C.ar    
  23 C23           -7.5802    -1.8219    -7.6303 C.ar    
  24 C24           -7.4072    -3.1928    -7.7693 C.ar    
  25 C25           -6.4627    -3.8408    -6.9947 C.ar    
  26 N26           -5.7222    -3.1753    -6.1321 N.ar    
  27 O27           -4.5865     2.1454    -3.8255 O.3     
  28 C28           -4.6690     3.5526    -3.5910 C.3     
  29 Cl29           4.5220     3.6151    -3.5571 Cl      
  30 H30            0.0898     1.4249    -1.8526 H       
  31 H31            0.6080     1.9344    -0.2285 H       
  32 H32            1.5467    -0.1351     1.2644 H       
  33 H33            0.8792    -1.7246     0.8064 H       
  34 H34            3.3724    -1.3866     0.3205 H       
  35 H35            2.3807    -1.9227    -1.0526 H       
  36 H36            5.0024    -0.6663    -1.3492 H       
  37 H37            5.8277     1.2432    -2.6537 H       
  38 H38            1.9700     3.0431    -2.4371 H       
  39 H39           -2.4999    -1.7084    -2.6570 H       
  40 H40           -2.9848     3.1783    -2.0363 H       
  41 H41           -1.3447     1.9312    -0.7036 H       
  42 H42           -6.9038    -0.0802    -6.5804 H       
  43 H43           -8.3121    -1.2950    -8.2245 H       
  44 H44           -8.0056    -3.7483    -8.4762 H       
  45 H45           -6.3270    -4.9068    -7.1017 H       
  46 H46           -5.4327     3.9845    -4.2378 H       
  47 H47           -4.9316     3.7323    -2.5485 H       
  48 H48           -3.7057     4.0142    -3.8078 H       
@<TRIPOS>BOND
   1    1    2 1
   2    1   10 1
   3    1   30 1
   4    1   31 1
   5    2    3 1
   6    2   11 am
   7    3    4 1
   8    3   32 1
   9    3   33 1
  10    4    5 1
  11    4   34 1
  12    4   35 1
  13    5    6 ar
  14    5   10 ar
  15    6    7 ar
  16    6   36 1
  17    7    8 ar
  18    7   37 1
  19    8    9 ar
  20    8   29 1
  21    9   10 ar
  22    9   38 1
  23   11   12 1
  24   11   18 2
  25   12   13 ar
  26   12   17 ar
  27   13   14 ar
  28   13   39 1
  29   14   15 ar
  30   14   19 1
  31   15   16 ar
  32   15   27 1
  33   16   17 ar
  34   16   40 1
  35   17   41 1
  36   19   20 3
  37   20   21 1
  38   21   22 ar
  39   21   26 ar
  40   22   23 ar
  41   22   42 1
  42   23   24 ar
  43   23   43 1
  44   24   25 ar
  45   24   44 1
  46   25   26 ar
  47   25   45 1
  48   27   28 1
  49   28   46 1
  50   28   47 1
  51   28   48 1

#	End of record

