#	Name: ASD02480006
#	Creating user name:	WinNT
#	Creation time:	15. 06. 2019 20:22

#	Modifying user name:	WinNT
#	Modification time:	15. 06. 2019 20:22

#	Program:	/corina/corina34_cracker 3.40 0067  02.08.2006

@<TRIPOS>MOLECULE
ASD02480006
  34   35    0    0    0
SMALL
NO_CHARGES


@<TRIPOS>ATOM
   1 C1            -0.0167     1.3814     0.0096 C.ar    
   2 C2             0.0021    -0.0041     0.0020 C.ar    
   3 C3             1.2075    -0.6872    -0.0127 C.ar    
   4 C4             2.3974     0.0081    -0.0198 C.ar    
   5 C5             2.3862     1.4070    -0.0127 C.ar    
   6 C6             1.1653     2.0900     0.0022 C.ar    
   7 C7             3.6520     2.1562    -0.0197 C.2     
   8 C8             3.6357     3.6631    -0.0120 C.3     
   9 O9             4.7086     1.5612    -0.0318 O.2     
  10 C10            5.0510     4.1807    -0.0215 C.2     
  11 C11            5.7911     4.3228     1.2426 C.ar    
  12 C12            5.6396     4.5140    -1.1889 C.2     
  13 C13            6.1762     5.5895     1.6931 C.ar    
  14 C14            6.8694     5.7143     2.8785 C.ar    
  15 C15            7.1842     4.5901     3.6220 C.ar    
  16 C16            6.8066     3.3330     3.1829 C.ar    
  17 C17            6.1079     3.1922     2.0025 C.ar    
  18 Cl18          -1.4918    -0.8883     0.0115 Cl      
  19 C19            7.0129     5.0163    -1.1981 C.2     
  20 O20            7.6245     5.1336    -0.1535 O.2     
  21 O21            7.6014     5.3495    -2.3654 O.3     
  22 H22           -0.9600     1.9074     0.0169 H       
  23 H23            1.2146    -1.7672    -0.0182 H       
  24 H24            3.3362    -0.5257    -0.0306 H       
  25 H25            1.1492     3.1698     0.0074 H       
  26 H26            3.1104     4.0253    -0.8957 H       
  27 H27            3.1257     4.0163     0.8842 H       
  28 H28            5.0965     4.4097    -2.1166 H       
  29 H29            5.9316     6.4676     1.1139 H       
  30 H30            7.1679     6.6918     3.2276 H       
  31 H31            7.7277     4.6943     4.5494 H       
  32 H32            7.0562     2.4605     3.7684 H       
  33 H33            5.8136     2.2107     1.6613 H       
  34 H34            8.5085     5.6710    -2.2709 H       
@<TRIPOS>BOND
   1    1    2 ar
   2    1    6 ar
   3    1   22 1
   4    2    3 ar
   5    2   18 1
   6    3    4 ar
   7    3   23 1
   8    4    5 ar
   9    4   24 1
  10    5    6 ar
  11    5    7 1
  12    6   25 1
  13    7    8 1
  14    7    9 2
  15    8   10 1
  16    8   26 1
  17    8   27 1
  18   10   11 1
  19   10   12 2
  20   11   13 ar
  21   11   17 ar
  22   12   19 1
  23   12   28 1
  24   13   14 ar
  25   13   29 1
  26   14   15 ar
  27   14   30 1
  28   15   16 ar
  29   15   31 1
  30   16   17 ar
  31   16   32 1
  32   17   33 1
  33   19   20 2
  34   19   21 1
  35   21   34 1

#	End of record

