#	Name: ASD02190014
#	Creating user name:	WinNT
#	Creation time:	15. 06. 2019 20:18

#	Modifying user name:	WinNT
#	Modification time:	15. 06. 2019 20:18

#	Program:	/corina/corina34_cracker 3.40 0067  02.08.2006

@<TRIPOS>MOLECULE
ASD02190014
  42   44    0    0    0
SMALL
NO_CHARGES


@<TRIPOS>ATOM
   1 C1            -0.0359     1.4549     0.0053 C.3     
   2 C2             2.0218     2.2861     1.1833 C.ar    
   3 N3             3.2559     2.7634     1.1438 N.ar    
   4 C4             3.8683     2.9745    -0.0132 C.ar    
   5 N5             3.2752     2.7183    -1.1707 N.ar    
   6 C6             2.0372     2.2378    -1.2047 C.ar    
   7 C7             1.3690     2.0000    -0.0013 C.ar    
   8 N8             1.4191     1.9707    -2.4174 N.pl3   
   9 C9             2.0467     2.3188    -3.6099 C.ar    
  10 C10            1.8670     1.5325    -4.7446 C.ar    
  11 C11            2.4856     1.8740    -5.9252 C.ar    
  12 C12            3.2957     3.0123    -5.9845 C.ar    
  13 C13            3.4741     3.8000    -4.8428 C.ar    
  14 C14            2.8482     3.4557    -3.6668 C.ar    
  15 C15            5.2510     3.5109    -0.0123 C.ar    
  16 C16            5.8931     3.7876     1.1934 C.ar    
  17 C17            7.1798     4.2867     1.1882 C.ar    
  18 C18            7.8321     4.5123    -0.0106 C.ar    
  19 C19            7.1996     4.2399    -1.2102 C.ar    
  20 C20            5.9153     3.7348    -1.2170 C.ar    
  21 O21            0.0073     0.0267     0.0299 O.3     
  22 C22            3.9605     3.3810    -7.2475 C.2     
  23 O23            3.8048     2.6954    -8.2386 O.2     
  24 O24            4.7407     4.4783    -7.3030 O.3     
  25 C25            1.3381     2.0512     2.5055 C.3     
  26 H26           -0.5622     1.8177     0.8882 H       
  27 H27           -0.5588     1.7872    -0.8915 H       
  28 H28            0.5494     1.5414    -2.4344 H       
  29 H29            1.2415     0.6533    -4.6980 H       
  30 H30            2.3461     1.2633    -6.8050 H       
  31 H31            4.0991     4.6798    -4.8852 H       
  32 H32            2.9855     4.0635    -2.7847 H       
  33 H33            5.3846     3.6122     2.1299 H       
  34 H34            7.6782     4.5018     2.1218 H       
  35 H35            8.8390     4.9030    -0.0099 H       
  36 H36            7.7135     4.4183    -2.1432 H       
  37 H37            5.4223     3.5225    -2.1541 H       
  38 H38           -0.8638    -0.3931     0.0354 H       
  39 H39            5.1556     4.6795    -8.1530 H       
  40 H40            0.8020     2.9526     2.8025 H       
  41 H41            0.6338     1.2249     2.4087 H       
  42 H42            2.0839     1.8062     3.2618 H       
@<TRIPOS>BOND
   1    1   21 1
   2    1    7 1
   3    1   26 1
   4    1   27 1
   5    2    3 ar
   6    2   25 1
   7    2    7 ar
   8    3    4 ar
   9    4    5 ar
  10    4   15 1
  11    5    6 ar
  12    6    7 ar
  13    6    8 1
  14    8    9 1
  15    8   28 1
  16    9   10 ar
  17    9   14 ar
  18   10   11 ar
  19   10   29 1
  20   11   12 ar
  21   11   30 1
  22   12   13 ar
  23   12   22 1
  24   13   14 ar
  25   13   31 1
  26   14   32 1
  27   15   16 ar
  28   15   20 ar
  29   16   17 ar
  30   16   33 1
  31   17   18 ar
  32   17   34 1
  33   18   19 ar
  34   18   35 1
  35   19   20 ar
  36   19   36 1
  37   20   37 1
  38   21   38 1
  39   22   23 2
  40   22   24 1
  41   24   39 1
  42   25   40 1
  43   25   41 1
  44   25   42 1

#	End of record

