#	Name: ASD01000033
#	Creating user name:	WinNT
#	Creation time:	15. 06. 2019 18:54

#	Modifying user name:	WinNT
#	Modification time:	15. 06. 2019 18:54

#	Program:	/corina/corina34_cracker 3.40 0067  02.08.2006

@<TRIPOS>MOLECULE
ASD01000033
  52   54    0    0    0
SMALL
NO_CHARGES


@<TRIPOS>ATOM
   1 C1            -0.7124     1.3107     1.6424 C.ar    
   2 C2            -0.4244     0.0112     1.2521 C.ar    
   3 C3            -1.3614    -0.7217     0.5493 C.ar    
   4 C4            -2.5857    -0.1603     0.2345 C.ar    
   5 C5            -2.8748     1.1360     0.6225 C.ar    
   6 C6            -1.9433     1.8700     1.3305 C.ar    
   7 C7            -1.0490    -2.1336     0.1250 C.3     
   8 N8             0.4028    -2.2285    -0.1028 N.am    
   9 C9            -1.6455    -3.0731     1.1534 C.2     
  10 C10           -0.8098    -3.9263     1.7850 C.2     
  11 N11            0.5272    -3.9401     1.5049 N.am    
  12 C12            1.1059    -3.1329     0.6069 C.2     
  13 C13           -3.0299    -3.0572     1.4424 C.2     
  14 O14           -3.8464    -3.9752     0.8841 O.3     
  15 S15            2.7944    -3.2542     0.3516 S.2     
  16 O16           -3.4847    -2.2157     2.1946 O.2     
  17 O17            0.2077     2.0332     2.3342 O.3     
  18 Br18          -3.8659    -1.1655    -0.7280 Br      
  19 C19           -5.2417    -3.8623     1.1710 C.3     
  20 C20           -6.0147    -4.9065     0.3628 C.3     
  21 C21            1.3380    -4.8491     2.1960 C.ar    
  22 C22            1.7671    -4.5587     3.4844 C.ar    
  23 C23            2.5663    -5.4574     4.1635 C.ar    
  24 C24            2.9391    -6.6453     3.5618 C.ar    
  25 C25            2.5138    -6.9372     2.2788 C.ar    
  26 C26            1.7098    -6.0452     1.5965 C.ar    
  27 C27           -2.2995    -7.1633     3.1865 C.3     
  28 C28           -1.7396    -6.1975     2.1403 C.3     
  29 C29           -1.3614    -4.8776     2.8155 C.3     
  30 H30            0.5317    -0.4273     1.4971 H       
  31 H31           -3.8311     1.5728     0.3751 H       
  32 H32           -2.1695     2.8816     1.6335 H       
  33 H33           -1.5508    -2.3144    -0.8256 H       
  34 H34            0.8425    -1.6537    -0.7487 H       
  35 H35            0.8080     2.5446     1.7745 H       
  36 H36           -5.4086    -4.0300     2.2351 H       
  37 H37           -5.5885    -2.8647     0.9017 H       
  38 H38           -7.0847    -4.7642     0.5145 H       
  39 H39           -5.7796    -4.7937    -0.6955 H       
  40 H40           -5.7305    -5.9054     0.6937 H       
  41 H41            1.4766    -3.6309     3.9548 H       
  42 H42            2.9006    -5.2320     5.1654 H       
  43 H43            3.5641    -7.3465     4.0949 H       
  44 H44            2.8070    -7.8656     1.8114 H       
  45 H45            1.3740    -6.2759     0.5963 H       
  46 H46           -3.1840    -6.7252     3.6490 H       
  47 H47           -2.5690    -8.1036     2.7056 H       
  48 H48           -1.5445    -7.3493     3.9504 H       
  49 H49           -0.8552    -6.6356     1.6779 H       
  50 H50           -2.4947    -6.0116     1.3765 H       
  51 H51           -0.6063    -5.0635     3.5793 H       
  52 H52           -2.2458    -4.4395     3.2779 H       
@<TRIPOS>BOND
   1    1    2 ar
   2    1   17 1
   3    1    6 ar
   4    2    3 ar
   5    2   30 1
   6    3    4 ar
   7    3    7 1
   8    4    5 ar
   9    4   18 1
  10    5    6 ar
  11    5   31 1
  12    6   32 1
  13    7    8 1
  14    7    9 1
  15    7   33 1
  16    8   12 am
  17    8   34 1
  18    9   10 2
  19    9   13 1
  20   10   29 1
  21   10   11 1
  22   11   21 1
  23   11   12 am
  24   12   15 2
  25   13   14 1
  26   13   16 2
  27   14   19 1
  28   17   35 1
  29   19   20 1
  30   19   36 1
  31   19   37 1
  32   20   38 1
  33   20   39 1
  34   20   40 1
  35   21   22 ar
  36   21   26 ar
  37   22   23 ar
  38   22   41 1
  39   23   24 ar
  40   23   42 1
  41   24   25 ar
  42   24   43 1
  43   25   26 ar
  44   25   44 1
  45   26   45 1
  46   27   28 1
  47   27   46 1
  48   27   47 1
  49   27   48 1
  50   28   29 1
  51   28   49 1
  52   28   50 1
  53   29   51 1
  54   29   52 1

#	End of record

