#	Name: ASD02560228
#	Creating user name:	WinNT
#	Creation time:	15. 06. 2019 20:24

#	Modifying user name:	WinNT
#	Modification time:	15. 06. 2019 20:24

#	Program:	/corina/corina34_cracker 3.40 0067  02.08.2006

@<TRIPOS>MOLECULE
ASD02560228
  72   76    0    0    0
SMALL
NO_CHARGES


@<TRIPOS>ATOM
   1 Br1            1.7031     2.4558    -1.5620 Br      
   2 N2             0.0402     1.3272     0.4365 N.2     
   3 N3            -0.1973     0.1262     0.2748 N.2     
   4 C4             1.4594     1.6243     0.2027 C.3     
   5 N5             2.1353     0.3030     0.2496 N.3     
   6 C6             1.0174    -0.6102    -0.0980 C.3     
   7 S7             1.1400    -2.1496     0.8537 S.3     
   8 C8             1.0482    -1.5755     2.5720 C.3     
   9 C9             1.1380    -2.7578     3.5021 C.2     
  10 O10            1.2526    -3.8774     3.0504 O.2     
  11 N11            1.0909    -2.5709     4.8360 N.am    
  12 C12            3.1535     0.2292    -0.6984 C.ar    
  13 C13            1.1068    -3.6696     5.6952 C.ar    
  14 C14            0.4454    -3.6043     6.9189 C.ar    
  15 C15            0.4595    -4.6878     7.7693 C.ar    
  16 C16            1.1386    -5.8531     7.4024 C.ar    
  17 C17            1.8009    -5.9146     6.1737 C.ar    
  18 C18            1.7783    -4.8299     5.3255 C.ar    
  19 Cl19          -0.3970    -2.1560     7.3733 Cl      
  20 C20            1.1563    -7.0160     8.3111 C.2     
  21 C21            4.2380     1.1313    -0.6504 C.ar    
  22 C22            3.1139    -0.7293    -1.6888 C.ar    
  23 C23            4.1258    -0.8114    -2.6403 C.ar    
  24 C24            5.1809     0.0493    -2.6206 C.ar    
  25 C25            5.2620     1.0375    -1.6250 C.ar    
  26 C26            4.3207     2.1188     0.3436 C.ar    
  27 C27            6.3391     1.9396    -1.5805 C.ar    
  28 C28            6.3861     2.8849    -0.6025 C.ar    
  29 C29            5.3813     2.9725     0.3591 C.ar    
  30 C30            6.2638    -0.0617    -3.6627 C.3     
  31 N31            1.8115    -8.1389     7.9559 N.am    
  32 O32            0.5798    -6.9610     9.3802 O.2     
  33 C33            2.5505   -11.6745     9.1033 C.3     
  34 C34            2.6350   -10.4266     8.2200 C.3     
  35 C35            1.8291    -9.2932     8.8578 C.3     
  36 C36            3.4074   -12.7853     8.4919 C.3     
  37 N37            4.7998   -12.3303     8.3885 N.3     
  38 C38            4.9123   -11.1611     7.5072 C.3     
  39 C39            4.1003   -10.0019     8.0891 C.3     
  40 C40            7.4142    -0.9085    -3.1146 C.3     
  41 H41            1.8450     2.2759     0.9868 H       
  42 H42            1.0193    -0.8227    -1.1671 H       
  43 H43            1.8741    -0.8927     2.7715 H       
  44 H44            0.1023    -1.0582     2.7321 H       
  45 H45            1.0460    -1.6723     5.1986 H       
  46 H46           -0.0532    -4.6369     8.7185 H       
  47 H47            2.3265    -6.8136     5.8875 H       
  48 H48            2.2900    -4.8774     4.3756 H       
  49 H49            2.2882    -1.4245    -1.7262 H       
  50 H50            4.0737    -1.5704    -3.4068 H       
  51 H51            3.5467     2.2013     1.0923 H       
  52 H52            7.1256     1.8827    -2.3185 H       
  53 H53            7.2147     3.5768    -0.5706 H       
  54 H54            5.4418     3.7321     1.1244 H       
  55 H55            5.8595    -0.5339    -4.5580 H       
  56 H56            6.6319     0.9337    -3.9116 H       
  57 H57            2.2714    -8.1828     7.1029 H       
  58 H58            2.9183   -11.4391    10.1020 H       
  59 H59            1.5142   -12.0068     9.1654 H       
  60 H60            2.2302   -10.6508     7.2331 H       
  61 H61            2.2892    -9.0080     9.8039 H       
  62 H62            0.8080    -9.6297     9.0372 H       
  63 H63            3.3608   -13.6706     9.1260 H       
  64 H64            3.0306   -13.0298     7.4988 H       
  65 H65            5.1848   -12.1341     9.3003 H       
  66 H66            5.9587   -10.8668     7.4260 H       
  67 H67            4.5284   -11.4132     6.5186 H       
  68 H68            4.1713    -9.1391     7.4268 H       
  69 H69            4.4925    -9.7401     9.0719 H       
  70 H70            7.8185    -0.4363    -2.2193 H       
  71 H71            7.0461    -1.9039    -2.8657 H       
  72 H72            8.1975    -0.9888    -3.8683 H       
@<TRIPOS>BOND
   1    1    4 1
   2    2    3 2
   3    2    4 1
   4    3    6 1
   5    4    5 1
   6    4   41 1
   7    5    6 1
   8    5   12 1
   9    6    7 1
  10    6   42 1
  11    7    8 1
  12    8    9 1
  13    8   43 1
  14    8   44 1
  15    9   10 2
  16    9   11 am
  17   11   13 1
  18   11   45 1
  19   12   21 ar
  20   12   22 ar
  21   13   14 ar
  22   13   18 ar
  23   14   15 ar
  24   14   19 1
  25   15   16 ar
  26   15   46 1
  27   16   17 ar
  28   16   20 1
  29   17   18 ar
  30   17   47 1
  31   18   48 1
  32   20   31 am
  33   20   32 2
  34   21   25 ar
  35   21   26 ar
  36   22   23 ar
  37   22   49 1
  38   23   24 ar
  39   23   50 1
  40   24   25 ar
  41   24   30 1
  42   25   27 ar
  43   26   29 ar
  44   26   51 1
  45   27   28 ar
  46   27   52 1
  47   28   29 ar
  48   28   53 1
  49   29   54 1
  50   30   40 1
  51   30   55 1
  52   30   56 1
  53   31   35 1
  54   31   57 1
  55   33   34 1
  56   33   36 1
  57   33   58 1
  58   33   59 1
  59   34   35 1
  60   34   39 1
  61   34   60 1
  62   35   61 1
  63   35   62 1
  64   36   37 1
  65   36   63 1
  66   36   64 1
  67   37   38 1
  68   37   65 1
  69   38   39 1
  70   38   66 1
  71   38   67 1
  72   39   68 1
  73   39   69 1
  74   40   70 1
  75   40   71 1
  76   40   72 1

#	End of record

