#	Name: ASD00110031
#	Creating user name:	WinNT
#	Creation time:	15. 06. 2019 18:30

#	Modifying user name:	WinNT
#	Modification time:	15. 06. 2019 18:30

#	Program:	/corina/corina34_cracker 3.40 0067  02.08.2006

@<TRIPOS>MOLECULE
ASD00110031
  64   66    0    0    0
SMALL
NO_CHARGES


@<TRIPOS>ATOM
   1 C1            -0.0187     1.5270     0.0104 C.3     
   2 C2            -1.4347    -0.5286    -0.0486 C.3     
   3 C3            -1.4185    -2.0352    -0.0770 C.2     
   4 N4            -1.2400    -2.7289     1.0647 N.am    
   5 O5            -1.5661    -2.6236    -1.1272 O.2     
   6 C6            -1.2243    -4.1935     1.0371 C.3     
   7 C7            -2.6586    -4.7205     1.1136 C.3     
   8 O8            -3.2272    -4.3723     2.3776 O.3     
   9 C9            -0.4240    -4.7175     2.2312 C.3     
  10 O10           -1.0950    -4.3695     3.4439 O.3     
  11 C11            1.4162     2.0578    -0.0004 C.3     
  12 C12            1.3972     3.5818     0.1337 C.3     
  13 N13           -2.0992    -0.0236    -1.2568 N.3     
  14 C14           -2.1732     1.4430    -1.2485 C.3     
  15 C15           -0.7585     2.0264    -1.2337 C.3     
  16 C16            0.0021    -0.0041     0.0020 C.3     
  17 C17            0.9513    -4.1016     2.2234 C.ar    
  18 C18            3.4744    -2.9713     2.2087 C.ar    
  19 C19            2.4193    -2.2992     2.7970 C.ar    
  20 C20            1.1578    -2.8642     2.8041 C.ar    
  21 C21            2.0076    -4.7764     1.6406 C.ar    
  22 C22            3.2692    -4.2114     1.6335 C.ar    
  23 C23            2.8321     4.1127     0.1228 C.3     
  24 C24            2.8100     5.6425     0.1313 C.3     
  25 C25            4.2449     6.1734     0.1204 C.3     
  26 C26            4.9853     5.6672     1.3599 C.3     
  27 C27            5.0074     4.1374     1.3515 C.3     
  28 C28            3.5725     3.6065     1.3624 C.3     
  29 H29           -0.5307     1.8794     0.9058 H       
  30 H30           -1.9769    -0.1878     0.8335 H       
  31 H31           -1.1220    -2.2583     1.9047 H       
  32 H32           -0.7608    -4.5345     0.1113 H       
  33 H33           -3.2518    -4.2771     0.3139 H       
  34 H34           -2.6536    -5.8050     1.0039 H       
  35 H35           -4.1378    -4.6753     2.4961 H       
  36 H36           -0.3369    -5.8019     2.1625 H       
  37 H37           -1.2079    -3.4176     3.5717 H       
  38 H38            1.9695     1.6266     0.8339 H       
  39 H39            1.8987     1.7816    -0.9379 H       
  40 H40            0.8439     4.0131    -0.7006 H       
  41 H41            0.9147     3.8581     1.0712 H       
  42 H42           -1.6379    -0.3576    -2.0897 H       
  43 H43           -2.6979     1.7852    -2.1405 H       
  44 H44           -2.7120     1.7744    -0.3608 H       
  45 H45           -0.8139     3.1148    -1.2117 H       
  46 H46           -0.2236     1.7066    -2.1280 H       
  47 H47            0.5489    -0.3558    -0.8728 H       
  48 H48            0.4901    -0.3664     0.9068 H       
  49 H49            4.4600    -2.5298     2.2031 H       
  50 H50            2.5796    -1.3303     3.2464 H       
  51 H51            0.3333    -2.3388     3.2630 H       
  52 H52            1.8473    -5.7453     1.1912 H       
  53 H53            4.0935    -4.7365     1.1738 H       
  54 H54            3.3426     3.7617    -0.7740 H       
  55 H55            2.2825     6.0031    -0.7518 H       
  56 H56            2.2995     5.9936     1.0281 H       
  57 H57            4.7554     5.8223    -0.7764 H       
  58 H58            4.2291     7.2633     0.1264 H       
  59 H59            6.0076     6.0454     1.3522 H       
  60 H60            4.4748     6.0183     2.2567 H       
  61 H61            5.5180     3.7863     0.4547 H       
  62 H62            5.5350     3.7768     2.2346 H       
  63 H63            3.0620     3.9576     2.2592 H       
  64 H64            3.5883     2.5167     1.3564 H       
@<TRIPOS>BOND
   1    1   16 1
   2    1   11 1
   3    1   15 1
   4    1   29 1
   5    2    3 1
   6    2   13 1
   7    2   16 1
   8    2   30 1
   9    3    4 am
  10    3    5 2
  11    4    6 1
  12    4   31 1
  13    6    7 1
  14    6    9 1
  15    6   32 1
  16    7    8 1
  17    7   33 1
  18    7   34 1
  19    8   35 1
  20    9   10 1
  21    9   17 1
  22    9   36 1
  23   10   37 1
  24   11   12 1
  25   11   38 1
  26   11   39 1
  27   12   23 1
  28   12   40 1
  29   12   41 1
  30   13   14 1
  31   13   42 1
  32   14   15 1
  33   14   43 1
  34   14   44 1
  35   15   45 1
  36   15   46 1
  37   16   47 1
  38   16   48 1
  39   17   21 ar
  40   17   20 ar
  41   18   19 ar
  42   18   22 ar
  43   18   49 1
  44   19   20 ar
  45   19   50 1
  46   20   51 1
  47   21   22 ar
  48   21   52 1
  49   22   53 1
  50   23   24 1
  51   23   28 1
  52   23   54 1
  53   24   25 1
  54   24   55 1
  55   24   56 1
  56   25   26 1
  57   25   57 1
  58   25   58 1
  59   26   27 1
  60   26   59 1
  61   26   60 1
  62   27   28 1
  63   27   61 1
  64   27   62 1
  65   28   63 1
  66   28   64 1

#	End of record

