#	Name: ASD03498002
#	Creating user name:	WinNT
#	Creation time:	15. 06. 2019 20:42

#	Modifying user name:	WinNT
#	Modification time:	15. 06. 2019 20:42

#	Program:	/corina/corina34_cracker 3.40 0067  02.08.2006

@<TRIPOS>MOLECULE
ASD03498002
  68   72    0    0    0
SMALL
NO_CHARGES


@<TRIPOS>ATOM
   1 N1             0.1368     1.5574     0.5555 N.am    
   2 C2             0.0932     0.2142     0.6579 C.2     
   3 O3             1.1179    -0.4353     0.5763 O.2     
   4 N4            -1.0861    -0.4090     0.8507 N.am    
   5 N5            -2.2453    -2.5559     1.1509 N.pl3   
   6 N6            -1.8476    -3.8982     1.1971 N.2     
   7 C7            -0.5497    -3.9506     1.0376 C.2     
   8 C8            -0.0691    -2.6470     0.8838 C.2     
   9 C9            -1.1312    -1.7988     0.9566 C.2     
  10 C10           -3.5570    -2.0782     1.2764 C.ar    
  11 C11           -4.6168    -2.8122     0.7609 C.ar    
  12 C12           -5.9084    -2.3392     0.8865 C.ar    
  13 C13           -6.1464    -1.1356     1.5244 C.ar    
  14 C14           -5.0929    -0.4023     2.0388 C.ar    
  15 C15           -3.7997    -0.8729     1.9214 C.ar    
  16 C16           -7.5567    -0.6218     1.6589 C.3     
  17 C17            0.2858    -5.2047     1.0224 C.3     
  18 C18            1.0487    -5.3253     2.3431 C.3     
  19 C19           -0.6244    -6.4218     0.8462 C.3     
  20 C20            1.2814    -5.1402    -0.1376 C.3     
  21 C21            1.3695     2.2115     0.4522 C.ar    
  22 C22            2.4046     1.6328    -0.2681 C.ar    
  23 C23            3.6253     2.2850    -0.3686 C.ar    
  24 C24            3.8074     3.5151     0.2522 C.ar    
  25 C25            2.7748     4.0882     0.9685 C.ar    
  26 C26            1.5563     3.4436     1.0659 C.ar    
  27 N27            4.6708     1.7053    -1.0929 N.pl3   
  28 N28            7.3177     4.1366    -3.0873 N.ar    
  29 C29            6.2525     4.5978    -2.4767 C.ar    
  30 N30            5.3970     3.8193    -1.8333 N.ar    
  31 C31            5.5702     2.5061    -1.7675 C.ar    
  32 C32            6.7034     1.9478    -2.4080 C.ar    
  33 C33            6.9643     0.5736    -2.3889 C.ar    
  34 C34            8.0856     0.0892    -3.0312 C.ar    
  35 C35            8.9561     0.9585    -3.6963 C.ar    
  36 C36            8.7200     2.2991    -3.7260 C.ar    
  37 C37            7.5893     2.8225    -3.0834 C.ar    
  38 N38            8.3538    -1.2823    -3.0165 N.pl3   
  39 H39           -0.6864     2.0703     0.5494 H       
  40 H40           -1.9035     0.1092     0.9158 H       
  41 H41            0.9621    -2.3631     0.7344 H       
  42 H42           -4.4315    -3.7520     0.2620 H       
  43 H43           -6.7332    -2.9097     0.4858 H       
  44 H44           -5.2819     0.5373     2.5365 H       
  45 H45           -2.9777    -0.3019     2.3273 H       
  46 H46           -7.9911    -0.9917     2.5876 H       
  47 H47           -7.5467     0.4681     1.6712 H       
  48 H48           -8.1523    -0.9702     0.8151 H       
  49 H49            0.3395    -5.3713     3.1695 H       
  50 H50            1.6530    -6.2324     2.3321 H       
  51 H51            1.6972    -4.4582     2.4687 H       
  52 H52           -1.1679    -6.3358    -0.0947 H       
  53 H53           -0.0201    -7.3289     0.8351 H       
  54 H54           -1.3337    -6.4677     1.6726 H       
  55 H55            1.9299    -4.2731    -0.0121 H       
  56 H56            1.8857    -6.0472    -0.1486 H       
  57 H57            0.7379    -5.0542    -1.0785 H       
  58 H58            2.2606     0.6767    -0.7493 H       
  59 H59            4.7573     4.0231     0.1748 H       
  60 H60            2.9186     5.0442     1.4501 H       
  61 H61            0.7496     3.8964     1.6233 H       
  62 H62            4.7643     0.7402    -1.1215 H       
  63 H63            6.0648     5.6611    -2.5000 H       
  64 H64            6.2951    -0.1015    -1.8763 H       
  65 H65            9.8285     0.5607    -4.1932 H       
  66 H66            9.4020     2.9576    -4.2432 H       
  67 H67            7.7531    -1.8890    -2.5562 H       
  68 H68            9.1407    -1.6274    -3.4666 H       
@<TRIPOS>BOND
   1    1    2 am
   2    1   21 1
   3    1   39 1
   4    2    3 2
   5    2    4 am
   6    4    9 1
   7    4   40 1
   8    5    6 1
   9    5    9 1
  10    5   10 1
  11    6    7 2
  12    7    8 1
  13    7   17 1
  14    8    9 2
  15    8   41 1
  16   10   11 ar
  17   10   15 ar
  18   11   12 ar
  19   11   42 1
  20   12   13 ar
  21   12   43 1
  22   13   14 ar
  23   13   16 1
  24   14   15 ar
  25   14   44 1
  26   15   45 1
  27   16   46 1
  28   16   47 1
  29   16   48 1
  30   17   18 1
  31   17   20 1
  32   17   19 1
  33   18   49 1
  34   18   50 1
  35   18   51 1
  36   19   52 1
  37   19   53 1
  38   19   54 1
  39   20   55 1
  40   20   56 1
  41   20   57 1
  42   21   22 ar
  43   21   26 ar
  44   22   23 ar
  45   22   58 1
  46   23   24 ar
  47   23   27 1
  48   24   25 ar
  49   24   59 1
  50   25   26 ar
  51   25   60 1
  52   26   61 1
  53   27   31 1
  54   27   62 1
  55   28   29 ar
  56   28   37 ar
  57   29   30 ar
  58   29   63 1
  59   30   31 ar
  60   31   32 ar
  61   32   33 ar
  62   32   37 ar
  63   33   34 ar
  64   33   64 1
  65   34   35 ar
  66   34   38 1
  67   35   36 ar
  68   35   65 1
  69   36   37 ar
  70   36   66 1
  71   38   67 1
  72   38   68 1

#	End of record

