#	Name: ASD07110011
#	Creating user name:	WinNT
#	Creation time:	15. 06. 2019 21:09

#	Modifying user name:	WinNT
#	Modification time:	15. 06. 2019 21:09

#	Program:	/corina/corina34_cracker 3.40 0067  02.08.2006

@<TRIPOS>MOLECULE
ASD07110011
 431  440    0    0    0
SMALL
NO_CHARGES


@<TRIPOS>ATOM
   1 C1           -20.0256   -15.0915     9.3448 C.2     
   2 O2           -21.0910   -15.5025     8.9364 O.2     
   3 N3           -21.3388   -13.3576    10.4284 N.3     
   4 C4           -19.9762   -13.8649    10.2190 C.3     
   5 C5           -19.5830   -18.0606     8.8095 C.2     
   6 O6           -20.1739   -17.8775     9.8526 O.2     
   7 N7           -18.8863   -15.7348     9.0213 N.am    
   8 C8           -18.7908   -16.9406     8.1856 C.3     
   9 C9           -17.2994   -17.3302     8.1121 C.3     
  10 C10          -16.7005   -16.6520     9.3726 C.3     
  11 C11          -17.5289   -15.3422     9.4416 C.3     
  12 C12          -19.8485   -21.6784     8.3576 C.2     
  13 O13          -18.9021   -21.7094     7.5999 O.2     
  14 N14          -19.6347   -19.2657     8.2082 N.am    
  15 C15          -20.4048   -20.3545     8.8147 C.3     
  16 C16          -21.8698   -20.2421     8.3881 C.3     
  17 O17          -21.9722   -20.4468     6.9776 O.3     
  18 C18          -20.9379   -25.1671     8.4290 C.2     
  19 O19          -21.8894   -25.0054     9.1635 O.2     
  20 N20          -20.4029   -22.8279     8.7909 N.am    
  21 C21          -19.8622   -24.1149     8.3466 C.3     
  22 C22          -18.6896   -24.5130     9.2452 C.3     
  23 C23          -17.5365   -23.5274     9.0455 C.3     
  24 C24          -16.4234   -23.8346    10.0492 C.3     
  25 C25          -16.9913   -23.6617     7.6223 C.3     
  26 C26          -19.8384   -25.5118     5.6057 C.2     
  27 O27          -20.6158   -24.5845     5.6886 O.2     
  28 N28          -20.8427   -26.2878     7.6863 N.am    
  29 C29          -19.8045   -26.5651     6.6829 C.3     
  30 C30          -20.1141   -27.9489     6.0738 C.3     
  31 C31          -21.6280   -28.1256     6.3642 C.3     
  32 C32          -21.7586   -27.4412     7.7502 C.3     
  33 C33          -20.2484   -25.0230     2.5478 C.2     
  34 O34          -20.9104   -26.0087     2.7950 O.2     
  35 N35          -19.0049   -25.6002     4.5503 N.am    
  36 C36          -19.1077   -24.6350     3.4530 C.3     
  37 C37          -17.8024   -24.6295     2.6548 C.3     
  38 C38          -16.6819   -24.1261     3.5277 C.2     
  39 C39          -16.2452   -22.8598     3.6154 C.2     
  40 N40          -15.2135   -22.7829     4.5110 N.pl3   
  41 C41          -14.9545   -24.0296     5.0348 C.ar    
  42 C42          -14.0347   -24.5062     5.9629 C.ar    
  43 C43          -14.0234   -25.8446     6.2900 C.ar    
  44 C44          -14.9216   -26.7245     5.7023 C.ar    
  45 C45          -15.8335   -26.2779     4.7877 C.ar    
  46 C46          -15.8668   -24.9247     4.4463 C.ar    
  47 C47          -21.3984   -24.0984    -0.7967 C.2     
  48 O48          -20.7144   -23.1073    -0.9407 O.2     
  49 N49          -20.5329   -24.2746     1.4637 N.am    
  50 C50          -21.6418   -24.6518     0.5837 C.3     
  51 C51          -22.9492   -24.0824     1.1382 C.3     
  52 C52          -23.2791   -24.7606     2.4429 C.ar    
  53 C53          -22.8135   -24.2319     3.6326 C.ar    
  54 C54          -23.1141   -24.8520     4.8299 C.ar    
  55 C55          -23.8843   -26.0059     4.8380 C.ar    
  56 O56          -24.1818   -26.6174     6.0146 O.3     
  57 C57          -24.3506   -26.5341     3.6429 C.ar    
  58 C58          -24.0516   -25.9074     2.4487 C.ar    
  59 C59          -22.5094   -22.8514    -3.3479 C.2     
  60 O60          -22.9751   -22.3311    -2.3563 O.2     
  61 N61          -21.9407   -24.7049    -1.8711 N.am    
  62 C62          -21.8746   -24.2150    -3.2558 C.3     
  63 C63          -22.6535   -25.2169    -4.1339 C.3     
  64 C64          -23.5936   -25.9141    -3.1153 C.3     
  65 C65          -22.6931   -25.9726    -1.8536 C.3     
  66 C66          -23.1040   -20.3914    -6.0439 C.2     
  67 O67          -22.5875   -21.0796    -6.8986 O.2     
  68 N68          -22.5597   -22.2100    -4.5322 N.am    
  69 C69          -23.1768   -20.8844    -4.6217 C.3     
  70 C70          -23.5841   -17.2001    -7.7610 C.2     
  71 O71          -23.6651   -16.5872    -6.7176 O.2     
  72 N72          -23.6129   -19.1857    -6.3661 N.am    
  73 C73          -23.5422   -18.7065    -7.7487 C.3     
  74 C74          -24.7303   -19.2562    -8.5405 C.3     
  75 C75          -24.6201   -20.7794    -8.6339 C.3     
  76 C76          -25.7904   -21.3209    -9.4138 C.2     
  77 O77          -26.6269   -20.5660    -9.8501 O.2     
  78 O78          -25.9036   -22.6418    -9.6237 O.3     
  79 C79          -24.1067   -14.5928   -10.2693 C.2     
  80 O80          -24.4225   -15.3970   -11.1205 O.2     
  81 N81          -23.5315   -16.5340    -8.9315 N.am    
  82 C82          -23.5723   -15.0697    -8.9434 C.3     
  83 C83          -22.1604   -14.5184    -8.7346 C.3     
  84 C84          -21.6661   -14.8982    -7.3374 C.3     
  85 C85          -20.2754   -14.3553    -7.1317 C.2     
  86 O86          -19.7351   -13.7289    -8.0124 O.2     
  87 O87          -19.6370   -14.5676    -5.9702 O.3     
  88 C88          -24.2496   -11.4152   -12.0709 C.2     
  89 O89          -23.9328   -10.6937   -11.1490 O.2     
  90 N90          -24.2338   -13.2727   -10.5093 N.am    
  91 C91          -24.7534   -12.8091   -11.7982 C.3     
  92 C92          -26.2828   -12.7998   -11.7580 C.3     
  93 C93          -24.3669    -8.5531   -13.1164 C.2     
  94 O94          -25.3032    -8.8013   -12.3865 O.2     
  95 N95          -24.1510   -10.9704   -13.3393 N.am    
  96 C96          -23.5889    -9.6762   -13.7523 C.3     
  97 C97          -23.7090    -9.5937   -15.2886 C.3     
  98 C98          -24.8458   -10.6019   -15.6029 C.3     
  99 C99          -24.5833   -11.7038   -14.5430 C.3     
 100 C100         -24.6448    -4.9380   -13.5818 C.2     
 101 O101         -23.8242    -4.8949   -14.4738 O.2     
 102 N102         -24.0223    -7.2729   -13.3587 N.am    
 103 C103         -24.7787    -6.1811   -12.7405 C.3     
 104 C104         -24.2291    -5.9098   -11.3386 C.3     
 105 C105         -24.4584    -7.1373   -10.4546 C.3     
 106 C106         -22.7298    -5.6175   -11.4264 C.3     
 107 C107         -25.7641    -1.4701   -13.2922 C.2     
 108 O108         -26.2483    -1.6593   -12.1964 O.2     
 109 N109         -25.4371    -3.8742   -13.3430 N.am    
 110 C110         -25.2441    -2.6331   -14.0971 C.3     
 111 C111         -26.0053    -2.7176   -15.4216 C.3     
 112 C112         -25.3952    -3.8187   -16.2912 C.3     
 113 C113         -26.1450    -3.9019   -17.5958 C.2     
 114 O114         -27.0722    -3.1569   -17.8083 O.2     
 115 O115         -25.7828    -4.8036   -18.5218 O.3     
 116 C116         -26.5742     2.0359   -13.9363 C.2     
 117 O117         -26.4347     1.9060   -15.1340 O.2     
 118 N118         -25.6912    -0.2198   -13.7899 N.am    
 119 C119         -26.1967     0.9109   -13.0074 C.3     
 120 C120         -25.1103     1.3893   -12.0421 C.3     
 121 C121         -24.8156     0.2893   -11.0202 C.3     
 122 C122         -23.7456     0.7606   -10.0694 C.2     
 123 O123         -23.2677     1.8631   -10.1961 O.2     
 124 O124         -23.3234    -0.0445    -9.0818 O.3     
 125 C125         -27.3600     5.5899   -13.5975 C.2     
 126 O126         -27.0330     5.6081   -12.4298 O.2     
 127 N127         -27.0668     3.1863   -13.4360 N.am    
 128 C128         -27.4338     4.2800   -14.3390 C.3     
 129 C129         -28.8596     4.0628   -14.8499 C.3     
 130 C130         -28.9067     2.7967   -15.7076 C.3     
 131 C131         -30.3110     2.5828   -16.2109 C.2     
 132 O132         -31.1878     3.3660   -15.9129 O.2     
 133 N133         -30.5925     1.5213   -16.9921 N.am    
 134 C134         -28.5005     9.0158   -14.1680 C.2     
 135 O135         -29.1488     8.6971   -15.1422 O.2     
 136 N136         -27.6573     6.7411   -14.2321 N.am    
 137 C137         -27.5855     8.0145   -13.5113 C.3     
 138 C138         -26.1485     8.5387   -13.5439 C.3     
 139 C139         -25.2393     7.5830   -12.7688 C.3     
 140 C140         -23.8239     8.0993   -12.8010 C.2     
 141 O141         -23.5685     9.1263   -13.3840 O.2     
 142 O142         -22.8468     7.4183   -12.1819 O.3     
 143 C143         -29.0002    12.6338   -14.0165 C.2     
 144 O144         -28.0073    12.7988   -13.3398 O.2     
 145 N145         -28.5985    10.2654   -13.6727 N.am    
 146 C146         -29.4880    11.2388   -14.3111 C.3     
 147 C147         -30.9068    11.0684   -13.7643 C.3     
 148 C148         -31.4489     9.6968   -14.1713 C.3     
 149 C149         -32.8677     9.5265   -13.6245 C.3     
 150 N150         -33.3869     8.2132   -14.0142 N.pl3   
 151 C151         -34.6523     7.8337   -13.6338 C.2     
 152 N152         -35.3902     8.6425   -12.9264 N.2     
 153 N153         -35.1395     6.6012   -13.9995 N.pl3   
 154 C154         -30.3468    16.0197   -14.3095 C.2     
 155 O155         -31.4560    15.6146   -14.5864 O.2     
 156 N156         -29.6673    13.6982   -14.5049 N.am    
 157 C157         -29.1931    15.0544   -14.2185 C.3     
 158 C158         -28.1198    15.4450   -15.2365 C.3     
 159 C159         -26.9152    14.5564   -15.0624 C.ar    
 160 C160         -26.8234    13.3706   -15.7669 C.ar    
 161 C161         -25.7185    12.5555   -15.6072 C.ar    
 162 C162         -24.7051    12.9263   -14.7432 C.ar    
 163 C163         -24.7964    14.1126   -14.0394 C.ar    
 164 C164         -25.8994    14.9298   -14.2024 C.ar    
 165 C165         -31.2631    18.7384   -15.7162 C.2     
 166 O166         -30.4440    18.3074   -16.4999 O.2     
 167 N167         -30.1461    17.3330   -14.0832 N.am    
 168 C168         -31.2416    18.2859   -14.2789 C.3     
 169 C169         -31.0339    19.4962   -13.3662 C.3     
 170 C170         -31.1818    19.0719   -11.9277 C.2     
 171 O171         -31.3514    17.9024   -11.6548 O.2     
 172 N172         -31.1257    19.9920   -10.9446 N.am    
 173 C173         -31.2770    21.0563   -17.8608 C.2     
 174 O174         -30.5552    21.4840   -16.9851 O.2     
 175 N175         -32.1926    19.6220   -16.1306 N.am    
 176 C176         -32.2833    19.9788   -17.5486 C.3     
 177 C177         -33.6916    20.4915   -17.8564 C.3     
 178 C178         -34.6812    19.3656   -17.7009 C.2     
 179 O179         -34.3106    18.2840   -17.2963 O.2     
 180 N180         -35.9781    19.5607   -18.0114 N.am    
 181 C181         -30.8986    23.5587   -20.4375 C.2     
 182 O182         -31.9950    23.2976   -20.8854 O.2     
 183 N183         -31.1793    21.5445   -19.1132 N.am    
 184 C184         -30.2785    22.6651   -19.3943 C.3     
 185 C185         -28.9425    22.1282   -19.9117 C.3     
 186 C186         -29.1931    21.1927   -21.0962 C.3     
 187 C187         -29.7405    21.9989   -22.2757 C.3     
 188 C188         -28.2353    21.3583   -18.7945 C.3     
 189 C189         -29.6834    26.1953   -22.6588 C.2     
 190 O190         -28.5351    26.0475   -22.2976 O.2     
 191 N191         -30.2348    24.6479   -20.8725 N.am    
 192 C192         -30.7958    25.4653   -21.9512 C.3     
 193 C193         -31.7789    26.4798   -21.3639 C.3     
 194 C194         -32.9536    25.7514   -20.7634 C.2     
 195 C195         -33.3984    25.8743   -19.4983 C.2     
 196 N196         -34.4777    25.0415   -19.3753 N.pl3   
 197 C197         -34.6550    24.4381   -20.5704 C.2     
 198 N198         -33.7429    24.8713   -21.3971 N.2     
 199 C199         -29.4318    28.9677   -25.0281 C.2     
 200 O200         -30.6101    29.2360   -24.9251 O.2     
 201 N201         -29.9646    27.0125   -23.6930 N.am    
 202 C202         -28.8832    27.7223   -24.3808 C.3     
 203 C203         -28.2785    26.8141   -25.4534 C.3     
 204 C204         -27.6116    25.6100   -24.7853 C.3     
 205 C205         -27.1164    24.6399   -25.8599 C.3     
 206 C206         -26.4265    26.0858   -23.9426 C.3     
 207 C207         -28.2700    31.3838   -27.5132 C.2     
 208 O208         -27.2958    30.7160   -27.7888 O.2     
 209 N209         -28.6131    29.7833   -25.7216 N.am    
 210 C210         -29.1464    30.9940   -26.3509 C.3     
 211 C211         -29.1724    32.1314   -25.3279 C.3     
 212 C212         -30.1584    31.7887   -24.2093 C.3     
 213 C213         -30.1840    32.9090   -23.2016 C.2     
 214 O214         -29.4828    33.8854   -23.3624 O.2     
 215 N215         -30.9863    32.8259   -22.1218 N.am    
 216 C216         -26.5612    33.6826   -28.8783 C.2     
 217 O217         -26.4597    33.9316   -27.7003 O.2     
 218 N218         -28.5687    32.4744   -28.2465 N.am    
 219 C219         -27.7167    32.8534   -29.3764 C.3     
 220 C220         -28.5340    33.6686   -30.3805 C.3     
 221 C221         -29.6156    32.8006   -30.9703 C.2     
 222 C222         -30.9344    33.0733   -30.9752 C.2     
 223 N223         -31.5525    32.0285   -31.6076 N.pl3   
 224 C224         -30.5892    31.1531   -31.9674 C.2     
 225 N225         -29.4330    31.6238   -31.5874 N.2     
 226 O226         -25.6446    34.1447   -29.7433 O.3     
 227 H227         -21.3325   -12.5346    11.0120 H       
 228 H228         -21.7952   -13.1729     9.5477 H       
 229 H229         -19.5323   -14.1219    11.1808 H       
 230 H230         -19.3732   -13.0972     9.7341 H       
 231 H231         -19.1710   -16.7300     7.1860 H       
 232 H232         -17.1805   -18.4125     8.1633 H       
 233 H233         -16.8413   -16.9333     7.2062 H       
 234 H234         -16.8593   -17.2658    10.2592 H       
 235 H235         -15.6413   -16.4355     9.2338 H       
 236 H236         -17.1212   -14.5964     8.7591 H       
 237 H237         -17.5440   -14.9567    10.4610 H       
 238 H238         -19.1620   -19.4121     7.3739 H       
 239 H239         -20.3363   -20.2870     9.9005 H       
 240 H240         -22.4587   -20.9974     8.9085 H       
 241 H241         -22.2465   -19.2507     8.6397 H       
 242 H242         -22.8752   -20.3896     6.6364 H       
 243 H243         -21.1599   -22.8031     9.3970 H       
 244 H244         -19.5172   -24.0279     7.3163 H       
 245 H245         -19.0077   -24.4938    10.2875 H       
 246 H246         -18.3575   -25.5181     8.9852 H       
 247 H247         -17.8965   -22.5105     9.2022 H       
 248 H248         -16.0634   -24.8514     9.8926 H       
 249 H249         -15.6019   -23.1324     9.9070 H       
 250 H250         -16.8118   -23.7389    11.0632 H       
 251 H251         -16.6862   -24.6932     7.4460 H       
 252 H252         -17.7672   -23.3852     6.9084 H       
 253 H253         -16.1321   -23.0025     7.4986 H       
 254 H254         -18.8236   -26.5778     7.1581 H       
 255 H255         -19.9247   -27.9488     5.0004 H       
 256 H256         -19.5331   -28.7269     6.5689 H       
 257 H257         -22.2319   -27.6149     5.6141 H       
 258 H258         -21.8935   -29.1810     6.4249 H       
 259 H259         -21.4539   -28.1241     8.5433 H       
 260 H260         -22.7825   -27.1041     7.9114 H       
 261 H261         -18.3371   -26.3028     4.5173 H       
 262 H262         -19.2889   -23.6402     3.8599 H       
 263 H263         -17.5762   -25.6422     2.3212 H       
 264 H264         -17.9092   -23.9769     1.7883 H       
 265 H265         -16.6483   -22.0252     3.0609 H       
 266 H266         -14.7358   -21.9710     4.7423 H       
 267 H267         -13.3315   -23.8294     6.4254 H       
 268 H268         -13.3082   -26.2128     7.0106 H       
 269 H269         -14.8994   -27.7707     5.9698 H       
 270 H270         -16.5290   -26.9685     4.3342 H       
 271 H271         -20.0034   -23.4863     1.2660 H       
 272 H272         -21.7116   -25.7384     0.5325 H       
 273 H273         -22.8375   -23.0109     1.3038 H       
 274 H274         -23.7537   -24.2578     0.4240 H       
 275 H275         -22.2140   -23.3336     3.6259 H       
 276 H276         -22.7496   -24.4390     5.7589 H       
 277 H277         -25.0002   -26.3052     6.4242 H       
 278 H278         -24.9501   -27.4325     3.6465 H       
 279 H279         -24.4181   -26.3157     1.5185 H       
 280 H280         -20.8357   -24.1629    -3.5813 H       
 281 H281         -23.2308   -24.6939    -4.8963 H       
 282 H282         -21.9755   -25.9387    -4.5895 H       
 283 H283         -24.4865   -25.3155    -2.9347 H       
 284 H284         -23.8586   -26.9167    -3.4509 H       
 285 H285         -22.0099   -26.8200    -1.9112 H       
 286 H286         -23.3050   -26.0381    -0.9539 H       
 287 H287         -22.1872   -22.6262    -5.3253 H       
 288 H288         -22.6455   -20.1914    -3.9693 H       
 289 H289         -24.2200   -20.9476    -4.3120 H       
 290 H290         -24.0260   -18.6353    -5.6826 H       
 291 H291         -22.6127   -19.0478    -8.2045 H       
 292 H292         -25.6585   -18.9894    -8.0350 H       
 293 H293         -24.7273   -18.8295    -9.5435 H       
 294 H294         -23.6920   -21.0462    -9.1394 H       
 295 H295         -24.6232   -21.2061    -7.6309 H       
 296 H296         -26.6713   -22.9417   -10.1294 H       
 297 H297         -23.4668   -17.0242    -9.7660 H       
 298 H298         -24.2219   -14.7177    -8.1420 H       
 299 H299         -21.4910   -14.9407    -9.4841 H       
 300 H300         -22.1761   -13.4329    -8.8319 H       
 301 H301         -22.3355   -14.4759    -6.5879 H       
 302 H302         -21.6504   -15.9838    -7.2401 H       
 303 H303         -18.7467   -14.2000    -5.8851 H       
 304 H304         -23.9813   -12.6295    -9.8285 H       
 305 H305         -24.4147   -13.4790   -12.5886 H       
 306 H306         -26.6706   -12.5418   -12.7435 H       
 307 H307         -26.6448   -13.7875   -11.4723 H       
 308 H308         -26.6227   -12.0636   -11.0297 H       
 309 H309         -22.5416    -9.6155   -13.4562 H       
 310 H310         -23.9890    -8.5874   -15.6001 H       
 311 H311         -22.7782    -9.9012   -15.7653 H       
 312 H312         -25.8246   -10.1437   -15.4609 H       
 313 H313         -24.7458   -11.0013   -16.6122 H       
 314 H314         -23.7955   -12.3776   -14.8800 H       
 315 H315         -25.4984   -12.2601   -14.3401 H       
 316 H316         -23.2735    -7.0744   -13.9425 H       
 317 H317         -25.8297    -6.4612   -12.6708 H       
 318 H318         -24.7422    -5.0504   -10.9072 H       
 319 H319         -23.9421    -7.9959   -10.8840 H       
 320 H320         -24.0702    -6.9427    -9.4548 H       
 321 H321         -25.5262    -7.3479   -10.3951 H       
 322 H322         -22.5664    -4.7430   -12.0562 H       
 323 H323         -22.3383    -5.4242   -10.4277 H       
 324 H324         -22.2167    -6.4769   -11.8578 H       
 325 H325         -26.1351    -3.9302   -12.6717 H       
 326 H326         -24.1821    -2.4908   -14.2969 H       
 327 H327         -27.0523    -2.9483   -15.2249 H       
 328 H328         -25.9353    -1.7626   -15.9425 H       
 329 H329         -24.3482    -3.5880   -16.4880 H       
 330 H330         -25.4652    -4.7737   -15.7704 H       
 331 H331         -26.2935    -4.8193   -19.3427 H       
 332 H332         -25.3039    -0.0685   -14.6663 H       
 333 H333         -27.0737     0.5975   -12.4410 H       
 334 H334         -24.2030     1.6186   -12.6009 H       
 335 H335         -25.4536     2.2844   -11.5235 H       
 336 H336         -25.7229     0.0600   -10.4614 H       
 337 H337         -24.4723    -0.6058   -11.5388 H       
 338 H338         -22.6354     0.3016    -8.4971 H       
 339 H339         -27.1784     3.2902   -12.4781 H       
 340 H340         -26.7446     4.3010   -15.1832 H       
 341 H341         -29.5364     3.9531   -14.0026 H       
 342 H342         -29.1649     4.9199   -15.4502 H       
 343 H343         -28.2298     2.9064   -16.5549 H       
 344 H344         -28.6014     1.9397   -15.1073 H       
 345 H345         -29.8912     0.8949   -17.2304 H       
 346 H346         -31.4964     1.3836   -17.3160 H       
 347 H347         -27.9189     6.7266   -15.1661 H       
 348 H348         -27.8941     7.8643   -12.4767 H       
 349 H349         -25.8092     8.6047   -14.5777 H       
 350 H350         -26.1118     9.5270   -13.0857 H       
 351 H351         -25.5785     7.5170   -11.7351 H       
 352 H352         -25.2760     6.5947   -13.2271 H       
 353 H353         -21.9549     7.7888   -12.2301 H       
 354 H354         -28.0800    10.5203   -12.8935 H       
 355 H355         -29.4919    11.0752   -15.3888 H       
 356 H356         -30.8886    11.1440   -12.6771 H       
 357 H357         -31.5494    11.8487   -14.1721 H       
 358 H358         -31.4671     9.6213   -15.2585 H       
 359 H359         -30.8063     8.9165   -13.7636 H       
 360 H360         -32.8496     9.6020   -12.5373 H       
 361 H361         -33.5103    10.3068   -14.0323 H       
 362 H362         -32.8377     7.6113   -14.5406 H       
 363 H363         -36.2830     8.3747   -12.6580 H       
 364 H364         -34.5904     5.9994   -14.5259 H       
 365 H365         -36.0324     6.3335   -13.7310 H       
 366 H366         -30.4614    13.5663   -15.0461 H       
 367 H367         -28.7705    15.0870   -13.2143 H       
 368 H368         -28.5156    15.3270   -16.2452 H       
 369 H369         -27.8306    16.4841   -15.0789 H       
 370 H370         -27.6152    13.0809   -16.4419 H       
 371 H371         -25.6471    11.6287   -16.1571 H       
 372 H372         -23.8421    12.2892   -14.6179 H       
 373 H373         -24.0048    14.4022   -13.3642 H       
 374 H374         -25.9690    15.8584   -13.6553 H       
 375 H375         -29.2763    17.6474   -13.7909 H       
 376 H376         -32.1890    17.8053   -14.0350 H       
 377 H377         -30.0351    19.9031   -13.5241 H       
 378 H378         -31.7777    20.2583   -13.5985 H       
 379 H379         -30.9901    20.9273   -11.1628 H       
 380 H380         -31.2209    19.7189   -10.0187 H       
 381 H381         -32.8015    20.0217   -15.4900 H       
 382 H382         -32.0753    19.0996   -18.1585 H       
 383 H383         -33.9446    21.2956   -17.1654 H       
 384 H384         -33.7261    20.8669   -18.8791 H       
 385 H385         -36.2746    20.4257   -18.3350 H       
 386 H386         -36.6151    18.8360   -17.9113 H       
 387 H387         -31.7054    21.1539   -19.8285 H       
 388 H388         -30.1116    23.2352   -18.4804 H       
 389 H389         -28.3160    22.9605   -20.2323 H       
 390 H390         -28.2574    20.7147   -21.3859 H       
 391 H391         -29.9174    20.4301   -20.8100 H       
 392 H392         -30.7895    22.2359   -22.0982 H       
 393 H393         -29.1718    22.9229   -22.3795 H       
 394 H394         -29.6503    21.4121   -23.1899 H       
 395 H395         -28.8105    20.4659   -18.5478 H       
 396 H396         -27.2390    21.0677   -19.1279 H       
 397 H397         -28.1525    21.9927   -17.9121 H       
 398 H398         -29.3856    24.8908   -20.4715 H       
 399 H399         -31.3173    24.8225   -22.6605 H       
 400 H400         -31.2798    27.0638   -20.5907 H       
 401 H401         -32.1289    27.1454   -22.1529 H       
 402 H402         -32.9832    26.5080   -18.7286 H       
 403 H403         -35.0149    24.9093   -18.5785 H       
 404 H404         -35.4264    23.7193   -20.8043 H       
 405 H405         -30.8830    27.1308   -23.9819 H       
 406 H406         -28.1127    27.9965   -23.6603 H       
 407 H407         -29.0660    26.4681   -26.1228 H       
 408 H408         -27.5351    27.3708   -26.0240 H       
 409 H409         -28.3335    25.1042   -24.1441 H       
 410 H410         -26.3945    25.1457   -26.5010 H       
 411 H411         -26.6413    23.7821   -25.3839 H       
 412 H412         -27.9607    24.3009   -26.4602 H       
 413 H413         -25.7046    26.5916   -24.5838 H       
 414 H414         -26.7793    26.7769   -23.1770 H       
 415 H415         -25.9514    25.2280   -23.4666 H       
 416 H416         -27.6707    29.5687   -25.8041 H       
 417 H417         -30.1586    30.8026   -26.7072 H       
 418 H418         -28.1761    32.2636   -24.9061 H       
 419 H419         -29.4849    33.0536   -25.8178 H       
 420 H420         -31.1548    31.6565   -24.6310 H       
 421 H421         -29.8459    30.8665   -23.7194 H       
 422 H422         -31.5472    32.0450   -21.9933 H       
 423 H423         -31.0028    33.5470   -21.4732 H       
 424 H424         -29.3479    33.0085   -28.0261 H       
 425 H425         -27.3363    31.9547   -29.8620 H       
 426 H426         -28.9877    34.5202   -29.8735 H       
 427 H427         -27.8803    34.0256   -31.1764 H       
 428 H428         -31.4125    33.9481   -30.5597 H       
 429 H429         -32.5046    31.9345   -31.7675 H       
 430 H430         -30.7490    30.2199   -32.4871 H       
 431 H431         -24.9217    34.6720   -29.3768 H       
@<TRIPOS>BOND
   1    1    2 2
   2    1    4 1
   3    1    7 am
   4    3    4 1
   5    3  227 1
   6    3  228 1
   7    4  229 1
   8    4  230 1
   9    5    6 2
  10    5   14 am
  11    5    8 1
  12    7    8 1
  13    7   11 1
  14    8    9 1
  15    8  231 1
  16    9   10 1
  17    9  232 1
  18    9  233 1
  19   10   11 1
  20   10  234 1
  21   10  235 1
  22   11  236 1
  23   11  237 1
  24   12   13 2
  25   12   15 1
  26   12   20 am
  27   14   15 1
  28   14  238 1
  29   15   16 1
  30   15  239 1
  31   16   17 1
  32   16  240 1
  33   16  241 1
  34   17  242 1
  35   18   19 2
  36   18   21 1
  37   18   28 am
  38   20   21 1
  39   20  243 1
  40   21   22 1
  41   21  244 1
  42   22   23 1
  43   22  245 1
  44   22  246 1
  45   23   24 1
  46   23   25 1
  47   23  247 1
  48   24  248 1
  49   24  249 1
  50   24  250 1
  51   25  251 1
  52   25  252 1
  53   25  253 1
  54   26   27 2
  55   26   35 am
  56   26   29 1
  57   28   29 1
  58   28   32 1
  59   29   30 1
  60   29  254 1
  61   30   31 1
  62   30  255 1
  63   30  256 1
  64   31   32 1
  65   31  257 1
  66   31  258 1
  67   32  259 1
  68   32  260 1
  69   33   34 2
  70   33   36 1
  71   33   49 am
  72   35   36 1
  73   35  261 1
  74   36   37 1
  75   36  262 1
  76   37   38 1
  77   37  263 1
  78   37  264 1
  79   38   39 2
  80   38   46 1
  81   39   40 1
  82   39  265 1
  83   40   41 1
  84   40  266 1
  85   41   42 ar
  86   41   46 ar
  87   42   43 ar
  88   42  267 1
  89   43   44 ar
  90   43  268 1
  91   44   45 ar
  92   44  269 1
  93   45   46 ar
  94   45  270 1
  95   47   48 2
  96   47   50 1
  97   47   61 am
  98   49   50 1
  99   49  271 1
 100   50   51 1
 101   50  272 1
 102   51   52 1
 103   51  273 1
 104   51  274 1
 105   52   53 ar
 106   52   58 ar
 107   53   54 ar
 108   53  275 1
 109   54   55 ar
 110   54  276 1
 111   55   56 1
 112   55   57 ar
 113   56  277 1
 114   57   58 ar
 115   57  278 1
 116   58  279 1
 117   59   60 2
 118   59   68 am
 119   59   62 1
 120   61   62 1
 121   61   65 1
 122   62   63 1
 123   62  280 1
 124   63   64 1
 125   63  281 1
 126   63  282 1
 127   64   65 1
 128   64  283 1
 129   64  284 1
 130   65  285 1
 131   65  286 1
 132   66   67 2
 133   66   69 1
 134   66   72 am
 135   68   69 1
 136   68  287 1
 137   69  288 1
 138   69  289 1
 139   70   71 2
 140   70   73 1
 141   70   81 am
 142   72   73 1
 143   72  290 1
 144   73   74 1
 145   73  291 1
 146   74   75 1
 147   74  292 1
 148   74  293 1
 149   75   76 1
 150   75  294 1
 151   75  295 1
 152   76   77 2
 153   76   78 1
 154   78  296 1
 155   79   80 2
 156   79   82 1
 157   79   90 am
 158   81   82 1
 159   81  297 1
 160   82   83 1
 161   82  298 1
 162   83   84 1
 163   83  299 1
 164   83  300 1
 165   84   85 1
 166   84  301 1
 167   84  302 1
 168   85   86 2
 169   85   87 1
 170   87  303 1
 171   88   89 2
 172   88   91 1
 173   88   95 am
 174   90   91 1
 175   90  304 1
 176   91   92 1
 177   91  305 1
 178   92  306 1
 179   92  307 1
 180   92  308 1
 181   93   94 2
 182   93  102 am
 183   93   96 1
 184   95   96 1
 185   95   99 1
 186   96   97 1
 187   96  309 1
 188   97   98 1
 189   97  310 1
 190   97  311 1
 191   98   99 1
 192   98  312 1
 193   98  313 1
 194   99  314 1
 195   99  315 1
 196  100  101 2
 197  100  103 1
 198  100  109 am
 199  102  103 1
 200  102  316 1
 201  103  104 1
 202  103  317 1
 203  104  105 1
 204  104  106 1
 205  104  318 1
 206  105  319 1
 207  105  320 1
 208  105  321 1
 209  106  322 1
 210  106  323 1
 211  106  324 1
 212  107  108 2
 213  107  110 1
 214  107  118 am
 215  109  110 1
 216  109  325 1
 217  110  111 1
 218  110  326 1
 219  111  112 1
 220  111  327 1
 221  111  328 1
 222  112  113 1
 223  112  329 1
 224  112  330 1
 225  113  114 2
 226  113  115 1
 227  115  331 1
 228  116  117 2
 229  116  119 1
 230  116  127 am
 231  118  119 1
 232  118  332 1
 233  119  120 1
 234  119  333 1
 235  120  121 1
 236  120  334 1
 237  120  335 1
 238  121  122 1
 239  121  336 1
 240  121  337 1
 241  122  123 2
 242  122  124 1
 243  124  338 1
 244  125  126 2
 245  125  128 1
 246  125  136 am
 247  127  128 1
 248  127  339 1
 249  128  129 1
 250  128  340 1
 251  129  130 1
 252  129  341 1
 253  129  342 1
 254  130  131 1
 255  130  343 1
 256  130  344 1
 257  131  132 2
 258  131  133 am
 259  133  345 1
 260  133  346 1
 261  134  135 2
 262  134  137 1
 263  134  145 am
 264  136  137 1
 265  136  347 1
 266  137  138 1
 267  137  348 1
 268  138  139 1
 269  138  349 1
 270  138  350 1
 271  139  140 1
 272  139  351 1
 273  139  352 1
 274  140  141 2
 275  140  142 1
 276  142  353 1
 277  143  144 2
 278  143  146 1
 279  143  156 am
 280  145  146 1
 281  145  354 1
 282  146  147 1
 283  146  355 1
 284  147  148 1
 285  147  356 1
 286  147  357 1
 287  148  149 1
 288  148  358 1
 289  148  359 1
 290  149  150 1
 291  149  360 1
 292  149  361 1
 293  150  151 1
 294  150  362 1
 295  151  152 2
 296  151  153 1
 297  152  363 1
 298  153  364 1
 299  153  365 1
 300  154  155 2
 301  154  157 1
 302  154  167 am
 303  156  157 1
 304  156  366 1
 305  157  158 1
 306  157  367 1
 307  158  159 1
 308  158  368 1
 309  158  369 1
 310  159  160 ar
 311  159  164 ar
 312  160  161 ar
 313  160  370 1
 314  161  162 ar
 315  161  371 1
 316  162  163 ar
 317  162  372 1
 318  163  164 ar
 319  163  373 1
 320  164  374 1
 321  165  166 2
 322  165  168 1
 323  165  175 am
 324  167  168 1
 325  167  375 1
 326  168  169 1
 327  168  376 1
 328  169  170 1
 329  169  377 1
 330  169  378 1
 331  170  171 2
 332  170  172 am
 333  172  379 1
 334  172  380 1
 335  173  174 2
 336  173  176 1
 337  173  183 am
 338  175  176 1
 339  175  381 1
 340  176  177 1
 341  176  382 1
 342  177  178 1
 343  177  383 1
 344  177  384 1
 345  178  179 2
 346  178  180 am
 347  180  385 1
 348  180  386 1
 349  181  182 2
 350  181  184 1
 351  181  191 am
 352  183  184 1
 353  183  387 1
 354  184  185 1
 355  184  388 1
 356  185  186 1
 357  185  188 1
 358  185  389 1
 359  186  187 1
 360  186  390 1
 361  186  391 1
 362  187  392 1
 363  187  393 1
 364  187  394 1
 365  188  395 1
 366  188  396 1
 367  188  397 1
 368  189  190 2
 369  189  192 1
 370  189  201 am
 371  191  192 1
 372  191  398 1
 373  192  193 1
 374  192  399 1
 375  193  194 1
 376  193  400 1
 377  193  401 1
 378  194  195 2
 379  194  198 1
 380  195  196 1
 381  195  402 1
 382  196  197 1
 383  196  403 1
 384  197  198 2
 385  197  404 1
 386  199  200 2
 387  199  202 1
 388  199  209 am
 389  201  202 1
 390  201  405 1
 391  202  203 1
 392  202  406 1
 393  203  204 1
 394  203  407 1
 395  203  408 1
 396  204  205 1
 397  204  206 1
 398  204  409 1
 399  205  410 1
 400  205  411 1
 401  205  412 1
 402  206  413 1
 403  206  414 1
 404  206  415 1
 405  207  208 2
 406  207  210 1
 407  207  218 am
 408  209  210 1
 409  209  416 1
 410  210  211 1
 411  210  417 1
 412  211  212 1
 413  211  418 1
 414  211  419 1
 415  212  213 1
 416  212  420 1
 417  212  421 1
 418  213  214 2
 419  213  215 am
 420  215  422 1
 421  215  423 1
 422  216  217 2
 423  216  219 1
 424  216  226 1
 425  218  219 1
 426  218  424 1
 427  219  220 1
 428  219  425 1
 429  220  221 1
 430  220  426 1
 431  220  427 1
 432  221  222 2
 433  221  225 1
 434  222  223 1
 435  222  428 1
 436  223  224 1
 437  223  429 1
 438  224  225 2
 439  224  430 1
 440  226  431 1

#	End of record

