#	Name: ASD02270006
#	Creating user name:	WinNT
#	Creation time:	15. 06. 2019 20:20

#	Modifying user name:	WinNT
#	Modification time:	15. 06. 2019 20:20

#	Program:	/corina/corina34_cracker 3.40 0067  02.08.2006

@<TRIPOS>MOLECULE
ASD02270006
  62   66    0    0    0
SMALL
NO_CHARGES


@<TRIPOS>ATOM
   1 N1             0.2483     1.5045     0.5726 N.am    
   2 C2             0.1661     0.0480     0.4045 C.3     
   3 N3             1.5427    -0.4675     0.5905 N.3     
   4 C4             2.3854     0.6824     0.2020 C.3     
   5 C5             1.5322     1.9021     0.4492 C.2     
   6 O6             1.9318     3.0448     0.5237 O.2     
   7 C7             3.6428     0.7279     1.0659 C.3     
   8 C8             4.5218     1.8995     0.6192 C.3     
   9 N9             4.8670     1.7391    -0.7992 N.3     
  10 C10            3.6674     1.7602    -1.6459 C.3     
  11 C11            2.7598     0.5842    -1.2744 C.3     
  12 C12            5.8305     2.7627    -1.2256 C.3     
  13 C13            6.3541     2.4202    -2.6218 C.3     
  14 N14            7.3149     3.4411    -3.0470 N.am    
  15 C15            7.9099     3.3460    -4.2526 C.2     
  16 C16            8.8791     4.3758    -4.6815 C.ar    
  17 C17            9.1766     5.4527    -3.8277 C.ar    
  18 C18           10.0630     6.4114    -4.1993 C.ar    
  19 C19           10.6977     6.3354    -5.4524 C.ar    
  20 C20           10.4065     5.2538    -6.3224 C.ar    
  21 C21            9.4918     4.2699    -5.9194 C.ar    
  22 O22            7.6493     2.4131    -4.9871 O.2     
  23 C23            1.7945    -1.6229    -0.2810 C.3     
  24 C24            0.9196    -2.7736     0.1451 C.ar    
  25 C25           -0.2948    -3.0022    -0.4833 C.ar    
  26 C26           -1.0665    -4.0731    -0.0583 C.ar    
  27 C27           -0.6028    -4.8712     0.9700 C.ar    
  28 N28            0.5579    -4.6236     1.5453 N.ar    
  29 C29            1.3204    -3.6179     1.1635 C.ar    
  30 C30           11.6181     7.3158    -5.8591 C.ar    
  31 C31           12.2163     7.2157    -7.0779 C.ar    
  32 C32           11.9301     6.1533    -7.9333 C.ar    
  33 C33           11.0445     5.1844    -7.5741 C.ar    
  34 H34           -0.5052     2.0914     0.7422 H       
  35 H35           -0.4987    -0.3791     1.1554 H       
  36 H36           -0.1929    -0.1942    -0.5958 H       
  37 H37            3.3619     0.8615     2.1106 H       
  38 H38            4.1953    -0.2049     0.9537 H       
  39 H39            3.9789     2.8345     0.7575 H       
  40 H40            5.4341     1.9174     1.2154 H       
  41 H41            3.1306     2.6963    -1.4920 H       
  42 H42            3.9600     1.6769    -2.6926 H       
  43 H43            3.2864    -0.3529    -1.4546 H       
  44 H44            1.8554     0.6165    -1.8820 H       
  45 H45            5.3398     3.7357    -1.2502 H       
  46 H46            6.6630     2.7934    -0.5227 H       
  47 H47            6.8448     1.4472    -2.5972 H       
  48 H48            5.5216     2.3896    -3.3247 H       
  49 H49            7.5229     4.1855    -2.4609 H       
  50 H50            8.6935     5.5181    -2.8640 H       
  51 H51           10.2807     7.2329    -3.5328 H       
  52 H52            9.2609     3.4410    -6.5721 H       
  53 H53            1.5667    -1.3561    -1.3130 H       
  54 H54            2.8418    -1.9149    -0.2039 H       
  55 H55           -0.6320    -2.3613    -1.2845 H       
  56 H56           -2.0182    -4.2806    -0.5250 H       
  57 H57           -1.1979    -5.7072     1.3068 H       
  58 H58            2.2648    -3.4463     1.6585 H       
  59 H59           11.8499     8.1455    -5.2078 H       
  60 H60           12.9233     7.9714    -7.3868 H       
  61 H61           12.4181     6.0981    -8.8951 H       
  62 H62           10.8324     4.3665    -8.2468 H       
@<TRIPOS>BOND
   1    1    2 1
   2    1    5 am
   3    1   34 1
   4    2    3 1
   5    2   35 1
   6    2   36 1
   7    3    4 1
   8    3   23 1
   9    4    5 1
  10    4    7 1
  11    4   11 1
  12    5    6 2
  13    7    8 1
  14    7   37 1
  15    7   38 1
  16    8    9 1
  17    8   39 1
  18    8   40 1
  19    9   10 1
  20    9   12 1
  21   10   11 1
  22   10   41 1
  23   10   42 1
  24   11   43 1
  25   11   44 1
  26   12   13 1
  27   12   45 1
  28   12   46 1
  29   13   14 1
  30   13   47 1
  31   13   48 1
  32   14   15 am
  33   14   49 1
  34   15   16 1
  35   15   22 2
  36   16   17 ar
  37   16   21 ar
  38   17   18 ar
  39   17   50 1
  40   18   19 ar
  41   18   51 1
  42   19   20 ar
  43   19   30 ar
  44   20   21 ar
  45   20   33 ar
  46   21   52 1
  47   23   24 1
  48   23   53 1
  49   23   54 1
  50   24   25 ar
  51   24   29 ar
  52   25   26 ar
  53   25   55 1
  54   26   27 ar
  55   26   56 1
  56   27   28 ar
  57   27   57 1
  58   28   29 ar
  59   29   58 1
  60   30   31 ar
  61   30   59 1
  62   31   32 ar
  63   31   60 1
  64   32   33 ar
  65   32   61 1
  66   33   62 1

#	End of record

