#	Name: ASD01884719
#	Creating user name:	WinNT
#	Creation time:	15. 06. 2019 19:48

#	Modifying user name:	WinNT
#	Modification time:	15. 06. 2019 19:48

#	Program:	/corina/corina34_cracker 3.40 0067  02.08.2006

@<TRIPOS>MOLECULE
ASD01884719
  41   43    0    0    0
SMALL
NO_CHARGES


@<TRIPOS>ATOM
   1 C1            -0.0172     1.4153     0.0098 C.2     
   2 C2             0.0021    -0.0041     0.0020 C.2     
   3 C3             1.1910     2.1066     0.0020 C.2     
   4 C4             2.3895     1.3740    -0.0134 C.2     
   5 C5             2.3490    -0.0045    -0.0204 C.2     
   6 N6             1.1744    -0.6644    -0.0123 N.am    
   7 C7             3.6947     2.0809    -0.0225 C.ar    
   8 H8             1.2067     3.1865     0.0073 H       
   9 O9            -1.0458    -0.6262     0.0087 O.2     
  10 C10            1.1736    -2.1294    -0.0197 C.3     
  11 C11            1.1871    -2.6389     1.3985 C.ar    
  12 C12            4.0562     2.8672    -1.1144 C.ar    
  13 C13            5.2708     3.5227    -1.1175 C.ar    
  14 C14            6.1287     3.3998    -0.0394 C.ar    
  15 C15            5.7747     2.6204     1.0472 C.ar    
  16 C16            4.5601     1.9651     1.0632 C.ar    
  17 C17           -0.0040    -2.8719     2.0604 C.ar    
  18 C18            0.0078    -3.3391     3.3611 C.ar    
  19 C19            1.2120    -3.5737     4.0007 C.ar    
  20 C20            2.4037    -3.3404     3.3378 C.ar    
  21 C21            2.3906    -2.8785     2.0351 C.ar    
  22 Cl22           1.2276    -4.1601     5.6346 Cl      
  23 C23           -1.2934     2.1439     0.0198 C.2     
  24 O24           -1.2992     3.3596     0.0265 O.2     
  25 O25           -2.4577     1.4642     0.0217 O.3     
  26 C26           -3.6792     2.2491     0.0317 C.3     
  27 H27            3.2729    -0.5635    -0.0326 H       
  28 H28            0.2784    -2.4897    -0.5266 H       
  29 H29            2.0583    -2.4906    -0.5440 H       
  30 H30            3.3874     2.9633    -1.9569 H       
  31 H31            5.5521     4.1325    -1.9633 H       
  32 H32            7.0784     3.9138    -0.0462 H       
  33 H33            6.4484     2.5275     1.8862 H       
  34 H34            4.2847     1.3569     1.9121 H       
  35 H35           -0.9439    -2.6884     1.5612 H       
  36 H36           -0.9228    -3.5208     3.8782 H       
  37 H37            3.3440    -3.5234     3.8365 H       
  38 H38            3.3208    -2.6963     1.5175 H       
  39 H39           -3.7113     2.8826    -0.8547 H       
  40 H40           -4.5404     1.5810     0.0322 H       
  41 H41           -3.7029     2.8730     0.9253 H       
@<TRIPOS>BOND
   1    1    2 1
   2    1    3 2
   3    1   23 1
   4    2    9 2
   5    2    6 am
   6    3    4 1
   7    3    8 1
   8    4    5 2
   9    4    7 1
  10    5    6 1
  11    5   27 1
  12    6   10 1
  13    7   12 ar
  14    7   16 ar
  15   10   11 1
  16   10   28 1
  17   10   29 1
  18   11   17 ar
  19   11   21 ar
  20   12   13 ar
  21   12   30 1
  22   13   14 ar
  23   13   31 1
  24   14   15 ar
  25   14   32 1
  26   15   16 ar
  27   15   33 1
  28   16   34 1
  29   17   18 ar
  30   17   35 1
  31   18   19 ar
  32   18   36 1
  33   19   20 ar
  34   19   22 1
  35   20   21 ar
  36   20   37 1
  37   21   38 1
  38   23   24 2
  39   23   25 1
  40   25   26 1
  41   26   39 1
  42   26   40 1
  43   26   41 1

#	End of record

