#	Name: ASD05940033
#	Creating user name:	WinNT
#	Creation time:	15. 06. 2019 21:04

#	Modifying user name:	WinNT
#	Modification time:	15. 06. 2019 21:04

#	Program:	/corina/corina34_cracker 3.40 0067  02.08.2006

@<TRIPOS>MOLECULE
ASD05940033
  60   63    0    0    0
SMALL
NO_CHARGES


@<TRIPOS>ATOM
   1 N1            -0.0159     1.3209     0.0093 N.ar    
   2 C2             0.0021    -0.0041     0.0020 C.ar    
   3 N3             1.1332    -0.6916    -0.0120 N.ar    
   4 C4             2.3090    -0.0663    -0.0199 C.ar    
   5 C5             2.3335     1.3280    -0.0131 C.ar    
   6 C6             1.1160     2.0191     0.0022 C.ar    
   7 N7             3.4868    -0.7916    -0.0341 N.am    
   8 C8             4.6748    -0.1528    -0.0420 C.2     
   9 C9             4.7054     1.3380    -0.0353 C.2     
  10 N10            3.5409     2.0208    -0.0209 N.am    
  11 N11            1.0909     3.4052     0.0090 N.pl3   
  12 N12           -1.2004    -0.6912     0.0098 N.pl3   
  13 C13            3.4439    -2.2559    -0.0401 C.3     
  14 O14            5.7657     1.9311    -0.0426 O.2     
  15 C15           -2.4657     0.0469     0.0258 C.3     
  16 C16           -3.6331    -0.9421     0.0317 C.3     
  17 C17           -4.9546    -0.1712     0.0484 C.3     
  18 C18            3.4159    -2.7518    -1.4629 C.ar    
  19 C19            4.5998    -3.0143    -2.1269 C.ar    
  20 C20            2.2065    -2.9496    -2.1021 C.ar    
  21 C21            2.1807    -3.4045    -3.4074 C.ar    
  22 C22            3.3644    -3.6612    -4.0732 C.ar    
  23 C23            4.5740    -3.4691    -3.4318 C.ar    
  24 N24            0.4599    -2.3841    -4.7866 N.3     
  25 C25           -0.6961    -2.6203    -5.6708 C.3     
  26 C26            0.0991    -1.3337    -3.8106 C.3     
  27 C27           -1.0336    -0.5293    -4.4958 C.3     
  28 C28           -1.8133    -1.6506    -5.2317 C.3     
  29 C29           -6.1219    -1.1603     0.0542 C.3     
  30 O30            5.7108    -0.7865    -0.0541 O.2     
  31 C31            0.8621    -3.6211    -4.1040 C.3     
  32 H32            3.5454     2.9907    -0.0167 H       
  33 H33            1.9220     3.9054     0.0031 H       
  34 H34            0.2422     3.8748     0.0197 H       
  35 H35           -1.2048    -1.6612     0.0046 H       
  36 H36            4.3276    -2.6474     0.4638 H       
  37 H37            2.5485    -2.5953     0.4807 H       
  38 H38           -2.5122     0.6690     0.9197 H       
  39 H39           -2.5292     0.6786    -0.8602 H       
  40 H40           -3.5867    -1.5642    -0.8622 H       
  41 H41           -3.5697    -1.5738     0.9177 H       
  42 H42           -5.0010     0.4509     0.9422 H       
  43 H43           -5.0180     0.4604    -0.8376 H       
  44 H44            5.5447    -2.8637    -1.6261 H       
  45 H45            1.2816    -2.7491    -1.5818 H       
  46 H46            3.3443    -4.0169    -5.0928 H       
  47 H47            5.4990    -3.6697    -3.9521 H       
  48 H48           -0.4180    -2.4214    -6.7058 H       
  49 H49           -1.0374    -3.6504    -5.5677 H       
  50 H50           -0.2609    -1.7831    -2.8851 H       
  51 H51            0.9557    -0.6895    -3.6125 H       
  52 H52           -1.6643    -0.0357    -3.7564 H       
  53 H53           -0.6266     0.1926    -5.2039 H       
  54 H54           -2.3385    -1.2498    -6.0986 H       
  55 H55           -2.5086    -2.1454    -4.5535 H       
  56 H56           -6.0755    -1.7824    -0.8396 H       
  57 H57           -6.0585    -1.7920     0.9403 H       
  58 H58           -7.0634    -0.6111     0.0662 H       
  59 H59            0.9649    -4.4227    -4.8354 H       
  60 H60            0.1039    -3.8941    -3.3700 H       
@<TRIPOS>BOND
   1    1    2 ar
   2    1    6 ar
   3    2    3 ar
   4    2   12 1
   5    3    4 ar
   6    4    5 ar
   7    4    7 1
   8    5    6 ar
   9    5   10 1
  10    6   11 1
  11    7    8 am
  12    7   13 1
  13    8    9 1
  14    8   30 2
  15    9   10 am
  16    9   14 2
  17   10   32 1
  18   11   33 1
  19   11   34 1
  20   12   15 1
  21   12   35 1
  22   13   18 1
  23   13   36 1
  24   13   37 1
  25   15   16 1
  26   15   38 1
  27   15   39 1
  28   16   17 1
  29   16   40 1
  30   16   41 1
  31   17   29 1
  32   17   42 1
  33   17   43 1
  34   18   19 ar
  35   18   20 ar
  36   19   23 ar
  37   19   44 1
  38   20   21 ar
  39   20   45 1
  40   21   22 ar
  41   21   31 1
  42   22   23 ar
  43   22   46 1
  44   23   47 1
  45   24   25 1
  46   24   26 1
  47   24   31 1
  48   25   28 1
  49   25   48 1
  50   25   49 1
  51   26   27 1
  52   26   50 1
  53   26   51 1
  54   27   28 1
  55   27   52 1
  56   27   53 1
  57   28   54 1
  58   28   55 1
  59   29   56 1
  60   29   57 1
  61   29   58 1
  62   31   59 1
  63   31   60 1

#	End of record

