#	Name: ASD02908004
#	Creating user name:	WinNT
#	Creation time:	15. 06. 2019 20:26

#	Modifying user name:	WinNT
#	Modification time:	15. 06. 2019 20:26

#	Program:	/corina/corina34_cracker 3.40 0067  02.08.2006

@<TRIPOS>MOLECULE
ASD02908004
  34   34    0    0    0
SMALL
NO_CHARGES


@<TRIPOS>ATOM
   1 C1            -0.0181     1.4830     0.0102 C.2     
   2 C2             0.0021    -0.0041     0.0020 C.2     
   3 C3             1.2828    -0.7205    -0.0141 C.2     
   4 C4             1.3011    -2.0684    -0.0215 C.2     
   5 O5             1.0244     2.1040     0.0036 O.2     
   6 O6            -1.1928     2.1401     0.0193 O.3     
   7 N7            -1.1182    -0.6713     0.0091 N.2     
   8 C8             4.7799    -3.1646    -0.9444 C.ar    
   9 C9             3.5866    -2.4586    -0.9693 C.ar    
  10 C10            2.5850    -2.7866    -0.0376 C.ar    
  11 C11            2.8467    -3.8181     0.8757 C.ar    
  12 C12            4.0635    -4.4637     0.8249 C.ar    
  13 N13            4.9773    -4.1263    -0.0654 N.ar    
  14 C14            1.8130    -4.2145     1.8981 C.3     
  15 O15            2.3221    -5.2811     2.7013 O.3     
  16 P16            1.4819    -5.9561     3.8975 P.3     
  17 O17            1.0480    -4.9080     4.8481 O.2     
  18 O18            0.1889    -6.7001     3.2919 O.3     
  19 O19            2.4069    -7.0271     4.6651 O.3     
  20 C20            5.8623    -2.8317    -1.9388 C.3     
  21 O21            3.3886    -1.4685    -1.8767 O.3     
  22 H22            2.2106    -0.1678    -0.0199 H       
  23 H23            0.3732    -2.6210    -0.0156 H       
  24 H24           -1.1553     3.1064     0.0244 H       
  25 H25           -1.1050    -1.6412     0.0038 H       
  26 H26            4.2724    -5.2591     1.5250 H       
  27 H27            1.5834    -3.3590     2.5332 H       
  28 H28            0.9066    -4.5432     1.3897 H       
  29 H29            0.3987    -7.4010     2.6596 H       
  30 H30            1.9645    -7.4738     5.3999 H       
  31 H31            6.5155    -2.0653    -1.5217 H       
  32 H32            6.4448    -3.7272    -2.1551 H       
  33 H33            5.4093    -2.4619    -2.8586 H       
  34 H34            2.9954    -1.7693    -2.7074 H       
@<TRIPOS>BOND
   1    1    2 1
   2    1    5 2
   3    1    6 1
   4    2    3 1
   5    2    7 2
   6    3    4 2
   7    3   22 1
   8    4   10 1
   9    4   23 1
  10    6   24 1
  11    7   25 1
  12    8    9 ar
  13    8   13 ar
  14    8   20 1
  15    9   10 ar
  16    9   21 1
  17   10   11 ar
  18   11   12 ar
  19   11   14 1
  20   12   13 ar
  21   12   26 1
  22   14   15 1
  23   14   27 1
  24   14   28 1
  25   15   16 1
  26   16   17 2
  27   16   18 1
  28   16   19 1
  29   18   29 1
  30   19   30 1
  31   20   31 1
  32   20   32 1
  33   20   33 1
  34   21   34 1

#	End of record

