#	Name: ASD03331394
#	Creating user name:	WinNT
#	Creation time:	15. 06. 2019 20:39

#	Modifying user name:	WinNT
#	Modification time:	15. 06. 2019 20:39

#	Program:	/corina/corina34_cracker 3.40 0067  02.08.2006

@<TRIPOS>MOLECULE
ASD03331394
  53   55    0    0    0
SMALL
NO_CHARGES


@<TRIPOS>ATOM
   1 O1            -0.4636     0.5672     0.5835 O.3     
   2 C2            -0.5248    -0.8432     0.3558 C.3     
   3 C3             0.0650    -1.1702    -1.0252 C.3     
   4 C4             1.3713    -0.4343    -1.1482 C.2     
   5 C5             1.7350     0.5834    -0.3242 C.2     
   6 C6             0.8593     1.0797     0.7970 C.3     
   7 C7             2.4306    -0.5993    -2.0510 C.2     
   8 N8             3.3485     0.2993    -1.7307 N.2     
   9 N9             2.9548     0.9982    -0.7208 N.pl3   
  10 C10            2.5078    -1.5850    -3.1477 C.2     
  11 O11            1.5891    -2.3588    -3.3353 O.2     
  12 N12            3.5968    -1.6269    -3.9406 N.am    
  13 C13            3.6735    -2.6049    -5.0287 C.3     
  14 C14            2.9732    -2.0446    -6.2683 C.3     
  15 C15            5.1186    -2.8849    -5.3516 C.2     
  16 C16            3.6858     2.0351    -0.1251 C.ar    
  17 C17            3.7327     2.1466     1.2579 C.ar    
  18 C18            4.4530     3.1693     1.8444 C.ar    
  19 C19            5.1287     4.0831     1.0546 C.ar    
  20 C20            5.0841     3.9740    -0.3277 C.ar    
  21 C21            4.3684     2.9485    -0.9175 C.ar    
  22 F22            5.8321     5.0826     1.6303 F       
  23 C23            3.6367    -0.7281    -6.6775 C.3     
  24 C24            3.0853    -3.0504    -7.4157 C.3     
  25 C25            1.4974    -1.7950    -5.9513 C.3     
  26 N26            5.4538    -4.0008    -6.0289 N.am    
  27 O27            5.9800    -2.1060    -5.0019 O.2     
  28 C28            6.8644    -4.3214    -6.2602 C.3     
  29 F29            5.7442     4.8668    -1.0974 F       
  30 H30            0.0473    -1.3601     1.1263 H       
  31 H31           -1.5633    -1.1721     0.3939 H       
  32 H32            0.2358    -2.2434    -1.1096 H       
  33 H33           -0.6197    -0.8414    -1.8070 H       
  34 H34            0.8376     2.1695     0.7932 H       
  35 H35            1.2440     0.7212     1.7518 H       
  36 H36            4.3298    -1.0095    -3.7909 H       
  37 H37            3.1841    -3.5292    -4.7216 H       
  38 H38            3.2058     1.4342     1.8753 H       
  39 H39            4.4885     3.2559     2.9204 H       
  40 H40            4.3333     2.8631    -1.9935 H       
  41 H41            4.6881    -0.9059    -6.9034 H       
  42 H42            3.1379    -0.3289    -7.5607 H       
  43 H43            3.5569    -0.0115    -5.8601 H       
  44 H44            2.6106    -3.9876    -7.1251 H       
  45 H45            2.5885    -2.6503    -8.2995 H       
  46 H46            4.1368    -3.2301    -7.6400 H       
  47 H47            1.4175    -1.0784    -5.1338 H       
  48 H48            0.9985    -1.3958    -6.8344 H       
  49 H49            1.0247    -2.7329    -5.6597 H       
  50 H50            4.7610    -4.5918    -6.3631 H       
  51 H51            7.3737    -4.4315    -5.3028 H       
  52 H52            6.9381    -5.2536    -6.8202 H       
  53 H53            7.3310    -3.5176    -6.8297 H       
@<TRIPOS>BOND
   1    1    2 1
   2    1    6 1
   3    2    3 1
   4    2   30 1
   5    2   31 1
   6    3    4 1
   7    3   32 1
   8    3   33 1
   9    4    5 2
  10    4    7 1
  11    5    6 1
  12    5    9 1
  13    6   34 1
  14    6   35 1
  15    7    8 2
  16    7   10 1
  17    8    9 1
  18    9   16 1
  19   10   11 2
  20   10   12 am
  21   12   13 1
  22   12   36 1
  23   13   14 1
  24   13   15 1
  25   13   37 1
  26   14   23 1
  27   14   24 1
  28   14   25 1
  29   15   26 am
  30   15   27 2
  31   16   17 ar
  32   16   21 ar
  33   17   18 ar
  34   17   38 1
  35   18   19 ar
  36   18   39 1
  37   19   20 ar
  38   19   22 1
  39   20   21 ar
  40   20   29 1
  41   21   40 1
  42   23   41 1
  43   23   42 1
  44   23   43 1
  45   24   44 1
  46   24   45 1
  47   24   46 1
  48   25   47 1
  49   25   48 1
  50   25   49 1
  51   26   28 1
  52   26   50 1
  53   28   51 1
  54   28   52 1
  55   28   53 1

#	End of record

