#	Name: ASD03310001
#	Creating user name:	WinNT
#	Creation time:	15. 06. 2019 20:35

#	Modifying user name:	WinNT
#	Modification time:	15. 06. 2019 20:35

#	Program:	/corina/corina34_cracker 3.40 0067  02.08.2006

@<TRIPOS>MOLECULE
ASD03310001
  64   68    0    0    0
SMALL
NO_CHARGES


@<TRIPOS>ATOM
   1 C1            -0.0158     1.3115     0.0093 C.2     
   2 N2             0.0021    -0.0041     0.0020 N.2     
   3 C3            -1.1344    -0.7180     0.0095 C.2     
   4 C4            -2.4132    -0.0010     0.0260 C.2     
   5 C5            -2.3850     1.3883     0.0332 C.2     
   6 N6            -1.1711     2.0262     0.0297 N.pl3   
   7 N7            -3.7125    -0.3792     0.0376 N.2     
   8 C8            -4.4663     0.6825     0.0513 C.2     
   9 N9            -3.6825     1.7987     0.0490 N.pl3   
  10 C10           -4.1517     3.1865     0.0614 C.3     
  11 O11           -5.4830     3.2621     0.6162 O.3     
  12 C12           -6.0235     4.5136     0.1391 C.3     
  13 C13           -5.5544     4.6119    -1.3294 C.3     
  14 C14           -4.2947     3.7188    -1.3817 C.3     
  15 C15           -7.5517     4.4953     0.2100 C.3     
  16 O16           -7.9646     4.4473     1.5772 O.3     
  17 P17           -9.5106     4.4167     2.0257 P.3     
  18 O18           -1.1040    -1.9387     0.0022 O.2     
  19 N19            1.1756     1.9861     0.0015 N.pl3   
  20 O20           -3.1486     4.4903    -1.7466 O.3     
  21 O21           -5.2247     5.9624    -1.6604 O.3     
  22 O22          -10.1957     3.2872     1.3584 O.2     
  23 O23           -9.6026     4.2323     3.6225 O.3     
  24 O24          -10.2193     5.7993     1.6035 O.3     
  25 C25          -10.8403     4.0637     4.3165 C.3     
  26 C26          -11.0361     5.1761     5.3752 C.3     
  27 C27          -11.6259     4.4389     6.5930 C.3     
  28 O28          -11.7883     3.0601     6.2204 O.3     
  29 C29          -10.8144     2.7842     5.1908 C.3     
  30 N30          -11.2124     1.6139     4.4046 N.am    
  31 C31          -12.9835     5.0422     6.9590 C.3     
  32 C32          -10.3528     0.5903     4.2514 C.2     
  33 N33          -10.6924    -0.4969     3.5342 N.am    
  34 C34          -11.9075    -0.5768     2.9553 C.2     
  35 C35          -12.8219     0.4931     3.1090 C.2     
  36 C36          -12.4570     1.5697     3.8376 C.2     
  37 O37          -12.2154    -1.5600     2.3060 O.2     
  38 O38           -9.7820     5.7731     5.7111 O.3     
  39 O39           -9.2535     0.6484     4.7677 O.2     
  40 O40          -13.4687     4.4320     8.1566 O.3     
  41 H41           -1.1371     2.9955     0.0350 H       
  42 H42           -5.5463     0.6797     0.0623 H       
  43 H43           -3.4665     3.8129     0.6326 H       
  44 H44           -5.6257     5.3451     0.7210 H       
  45 H45           -6.3220     4.2293    -2.0020 H       
  46 H46           -4.4396     2.8946    -2.0802 H       
  47 H47           -7.9479     5.3966    -0.2577 H       
  48 H48           -7.9293     3.6177    -0.3146 H       
  49 H49            2.0115     1.4941    -0.0091 H       
  50 H50            1.1838     2.9561     0.0066 H       
  51 H51           -3.2114     4.8985    -2.6210 H       
  52 H52           -4.9238     6.0818    -2.5716 H       
  53 H53           -9.8213     6.5839     2.0047 H       
  54 H54          -11.6762     4.0408     3.6172 H       
  55 H55          -11.7335     5.9306     5.0114 H       
  56 H56          -10.9434     4.5162     7.4394 H       
  57 H57           -9.8262     2.6371     5.6267 H       
  58 H58          -12.8737     6.1151     7.1166 H       
  59 H59          -13.6904     4.8645     6.1486 H       
  60 H60          -10.0603    -1.2257     3.4332 H       
  61 H61          -13.7997     0.4470     2.6527 H       
  62 H62          -13.1412     2.3954     3.9657 H       
  63 H63           -9.8457     6.4772     6.3709 H       
  64 H64          -14.3276     4.7669     8.4486 H       
@<TRIPOS>BOND
   1    1    2 2
   2    1   19 1
   3    1    6 1
   4    2    3 1
   5    3    4 1
   6    3   18 2
   7    4    5 2
   8    4    7 1
   9    5    6 1
  10    5    9 1
  11    6   41 1
  12    7    8 2
  13    8    9 1
  14    8   42 1
  15    9   10 1
  16   10   11 1
  17   10   14 1
  18   10   43 1
  19   11   12 1
  20   12   13 1
  21   12   15 1
  22   12   44 1
  23   13   14 1
  24   13   21 1
  25   13   45 1
  26   14   20 1
  27   14   46 1
  28   15   16 1
  29   15   47 1
  30   15   48 1
  31   16   17 1
  32   17   22 2
  33   17   23 1
  34   17   24 1
  35   19   49 1
  36   19   50 1
  37   20   51 1
  38   21   52 1
  39   23   25 1
  40   24   53 1
  41   25   26 1
  42   25   29 1
  43   25   54 1
  44   26   27 1
  45   26   38 1
  46   26   55 1
  47   27   28 1
  48   27   31 1
  49   27   56 1
  50   28   29 1
  51   29   30 1
  52   29   57 1
  53   30   32 am
  54   30   36 1
  55   31   40 1
  56   31   58 1
  57   31   59 1
  58   32   33 am
  59   32   39 2
  60   33   34 am
  61   33   60 1
  62   34   35 1
  63   34   37 2
  64   35   36 2
  65   35   61 1
  66   36   62 1
  67   38   63 1
  68   40   64 1

#	End of record

