#	Name: ASD01410283
#	Creating user name:	WinNT
#	Creation time:	15. 06. 2019 19:17

#	Modifying user name:	WinNT
#	Modification time:	15. 06. 2019 19:17

#	Program:	/corina/corina34_cracker 3.40 0067  02.08.2006

@<TRIPOS>MOLECULE
ASD01410283
  69   73    0    0    0
SMALL
NO_CHARGES


@<TRIPOS>ATOM
   1 C1             0.5888     1.5393     0.1553 C.2     
   2 C2             1.5923     0.6815     0.4002 C.2     
   3 C3             1.1446    -0.6214    -0.1098 C.2     
   4 C4            -0.1013    -0.4099    -0.6167 C.2     
   5 O5            -0.4126     0.8817    -0.4489 O.3     
   6 N6             1.3545    -3.0869    -0.1912 N.2     
   7 C7             1.8912    -1.8960    -0.0794 C.2     
   8 N8             3.2478    -2.0108     0.0692 N.pl3   
   9 C9             3.5505    -3.3565     0.0458 C.ar    
  10 C10            2.3264    -4.0311    -0.1216 C.ar    
  11 C11            4.7355    -4.0758     0.1492 C.ar    
  12 C12            4.7180    -5.4393     0.0883 C.ar    
  13 C13            3.5090    -6.1274    -0.0785 C.ar    
  14 C14            2.3125    -5.4247    -0.1829 C.ar    
  15 C15            6.2887     0.1241    -0.6797 C.3     
  16 C16            6.9227     0.0590     0.7112 C.3     
  17 C17            5.8301     0.1768     1.7757 C.3     
  18 C18            4.8348    -0.9740     1.6145 C.3     
  19 C19            4.2008    -0.9089     0.2236 C.3     
  20 C20            5.2934    -1.0267    -0.8409 C.3     
  21 C21            3.5044    -7.6027    -0.1432 C.2     
  22 N22            4.6622    -8.2853    -0.0419 N.am    
  23 O23            2.4564    -8.2016    -0.2879 O.2     
  24 C24            4.6576    -9.7489    -0.1060 C.3     
  25 C25            4.6926   -10.1953    -1.5691 C.3     
  26 C26            5.8681   -10.2870     0.6124 C.2     
  27 N27            6.0741   -11.6170     0.6827 N.am    
  28 O28            6.6570    -9.5231     1.1275 O.2     
  29 C29            7.8095   -11.4586     2.3501 C.ar    
  30 C30            8.9778   -11.9591     2.9308 C.ar    
  31 C31            9.5675   -13.1180     2.4147 C.ar    
  32 C32            8.9951   -13.7610     1.3374 C.ar    
  33 C33            7.8390   -13.2644     0.7633 C.ar    
  34 C34            7.2442   -12.1140     1.2681 C.ar    
  35 C35           10.7138   -11.7551     4.6387 C.2     
  36 C36            9.5858   -11.2695     4.0802 C.2     
  37 C37           11.3179   -11.0699     5.7807 C.2     
  38 O38           10.8033   -10.0623     6.2271 O.2     
  39 O39           12.4458   -11.5555     6.3391 O.3     
  40 H40            0.5863     2.5892     0.4084 H       
  41 H41            2.5364     0.9040     0.8752 H       
  42 H42           -0.7313    -1.1569    -1.0766 H       
  43 H43            5.6725    -3.5544     0.2776 H       
  44 H44            5.6426    -5.9915     0.1690 H       
  45 H45            1.3801    -5.9543    -0.3115 H       
  46 H46            5.7677     1.0742    -0.7975 H       
  47 H47            7.0671     0.0401    -1.4381 H       
  48 H48            7.4437    -0.8912     0.8289 H       
  49 H49            7.6317     0.8788     0.8260 H       
  50 H50            6.2817     0.1304     2.7666 H       
  51 H51            5.3090     1.1269     1.6580 H       
  52 H52            5.3558    -1.9242     1.7322 H       
  53 H53            4.0563    -0.8901     2.3729 H       
  54 H54            3.6798     0.0412     0.1058 H       
  55 H55            4.8418    -0.9804    -1.8319 H       
  56 H56            5.8144    -1.9769    -0.7232 H       
  57 H57            5.4984    -7.8075     0.0736 H       
  58 H58            3.7538   -10.1306     0.3688 H       
  59 H59            4.6893   -11.2843    -1.6168 H       
  60 H60            3.8171    -9.8061    -2.0887 H       
  61 H61            5.5965    -9.8136    -2.0439 H       
  62 H62            5.4114   -12.2299     0.3276 H       
  63 H63            7.3464   -10.5669     2.7461 H       
  64 H64           10.4707   -13.5087     2.8596 H       
  65 H65            9.4516   -14.6556     0.9402 H       
  66 H66            7.3965   -13.7726    -0.0806 H       
  67 H67           11.1707   -12.6498     4.2423 H       
  68 H68            9.1289   -10.3747     4.4766 H       
  69 H69           12.7696   -11.0356     7.0874 H       
@<TRIPOS>BOND
   1    1    2 2
   2    1    5 1
   3    1   40 1
   4    2    3 1
   5    2   41 1
   6    3    4 2
   7    3    7 1
   8    4    5 1
   9    4   42 1
  10    6    7 2
  11    6   10 1
  12    7    8 1
  13    8    9 1
  14    8   19 1
  15    9   10 ar
  16    9   11 ar
  17   10   14 ar
  18   11   12 ar
  19   11   43 1
  20   12   13 ar
  21   12   44 1
  22   13   14 ar
  23   13   21 1
  24   14   45 1
  25   15   16 1
  26   15   20 1
  27   15   46 1
  28   15   47 1
  29   16   17 1
  30   16   48 1
  31   16   49 1
  32   17   18 1
  33   17   50 1
  34   17   51 1
  35   18   19 1
  36   18   52 1
  37   18   53 1
  38   19   20 1
  39   19   54 1
  40   20   55 1
  41   20   56 1
  42   21   22 am
  43   21   23 2
  44   22   24 1
  45   22   57 1
  46   24   25 1
  47   24   26 1
  48   24   58 1
  49   25   59 1
  50   25   60 1
  51   25   61 1
  52   26   27 am
  53   26   28 2
  54   27   34 1
  55   27   62 1
  56   29   30 ar
  57   29   34 ar
  58   29   63 1
  59   30   31 ar
  60   30   36 1
  61   31   32 ar
  62   31   64 1
  63   32   33 ar
  64   32   65 1
  65   33   34 ar
  66   33   66 1
  67   35   37 1
  68   35   36 2
  69   35   67 1
  70   36   68 1
  71   37   38 2
  72   37   39 1
  73   39   69 1

#	End of record

