#	Name: ASD03910019
#	Creating user name:	WinNT
#	Creation time:	15. 06. 2019 20:47

#	Modifying user name:	WinNT
#	Modification time:	15. 06. 2019 20:47

#	Program:	/corina/corina34_cracker 3.40 0067  02.08.2006

@<TRIPOS>MOLECULE
ASD03910019
  55   57    0    0    0
SMALL
NO_CHARGES


@<TRIPOS>ATOM
   1 C1             0.1445     0.0938    -1.2088 C.ar    
   2 C2             1.0999     0.6023    -0.3482 C.ar    
   3 C3             0.7862     1.6522     0.4954 C.ar    
   4 C4            -0.4833     2.1959     0.4811 C.ar    
   5 C5            -1.4451     1.6874    -0.3820 C.ar    
   6 C6            -1.1251     0.6371    -1.2323 C.ar    
   7 N7            -2.7322     2.2360    -0.3990 N.am    
   8 C8            -2.9031     3.5596    -0.2109 C.2     
   9 C9            -4.2777     4.1660    -0.3283 C.3     
  10 O10           -1.9506     4.2626     0.0528 O.2     
  11 C11           -4.1958     5.6493    -0.0746 C.ar    
  12 C12           -3.9747     6.5183    -1.1270 C.ar    
  13 C13           -3.8991     7.8784    -0.8971 C.ar    
  14 C14           -4.0453     8.3720     0.3912 C.ar    
  15 C15           -4.2670     7.4980     1.4454 C.ar    
  16 C16           -4.3474     6.1392     1.2094 C.ar    
  17 O17           -3.9710     9.7096     0.6200 O.3     
  18 C18           -4.2161    10.1538     1.9559 C.3     
  19 C19           -3.2003     9.5538     2.8936 C.2     
  20 C20           -4.1509    11.6898     2.0210 C.3     
  21 C21           -5.5381    12.1701     2.4949 C.3     
  22 C22           -6.4936    11.0149     2.1053 C.3     
  23 C23           -5.6402     9.7532     2.3931 C.3     
  24 C24            0.4907    -1.0504    -2.1264 C.3     
  25 C25            1.8306     2.2033     1.4317 C.3     
  26 O26           -3.5137     9.2776     4.0274 O.2     
  27 O27           -1.9474     9.3261     2.4693 O.3     
  28 C28           -3.0760    12.1269     3.0182 C.3     
  29 H29            2.0932     0.1784    -0.3346 H       
  30 H30           -0.7279     3.0153     1.1407 H       
  31 H31           -1.8708     0.2397    -1.9050 H       
  32 H32           -3.5014     1.6637    -0.5461 H       
  33 H33           -4.6681     3.9899    -1.3306 H       
  34 H34           -4.9408     3.7080     0.4056 H       
  35 H35           -3.8606     6.1334    -2.1297 H       
  36 H36           -3.7261     8.5567    -1.7194 H       
  37 H37           -4.3812     7.8799     2.4492 H       
  38 H38           -4.5200     5.4584     2.0298 H       
  39 H39           -3.9322    12.0963     1.0336 H       
  40 H40           -5.5415    12.3203     3.5745 H       
  41 H41           -5.8202    13.0885     1.9802 H       
  42 H42           -7.3878    11.0265     2.7284 H       
  43 H43           -6.7567    11.0708     1.0490 H       
  44 H44           -5.9972     8.9086     1.8037 H       
  45 H45           -5.6604     9.5133     3.4562 H       
  46 H46            0.2792    -1.9949    -1.6252 H       
  47 H47           -0.1061    -0.9802    -3.0358 H       
  48 H48            1.5492    -1.0037    -2.3820 H       
  49 H49            2.3773     3.0048     0.9349 H       
  50 H50            1.3463     2.5941     2.3266 H       
  51 H51            2.5235     1.4096     1.7108 H       
  52 H52           -1.3313     8.9399     3.1068 H       
  53 H53           -2.1195    11.6854     2.7382 H       
  54 H54           -2.9914    13.2136     3.0081 H       
  55 H55           -3.3512    11.7932     4.0187 H       
@<TRIPOS>BOND
   1    1    2 ar
   2    1   24 1
   3    1    6 ar
   4    2    3 ar
   5    2   29 1
   6    3    4 ar
   7    3   25 1
   8    4    5 ar
   9    4   30 1
  10    5    6 ar
  11    5    7 1
  12    6   31 1
  13    7    8 am
  14    7   32 1
  15    8    9 1
  16    8   10 2
  17    9   11 1
  18    9   33 1
  19    9   34 1
  20   11   12 ar
  21   11   16 ar
  22   12   13 ar
  23   12   35 1
  24   13   14 ar
  25   13   36 1
  26   14   15 ar
  27   14   17 1
  28   15   16 ar
  29   15   37 1
  30   16   38 1
  31   17   18 1
  32   18   19 1
  33   18   20 1
  34   18   23 1
  35   19   26 2
  36   19   27 1
  37   20   21 1
  38   20   28 1
  39   20   39 1
  40   21   22 1
  41   21   40 1
  42   21   41 1
  43   22   23 1
  44   22   42 1
  45   22   43 1
  46   23   44 1
  47   23   45 1
  48   24   46 1
  49   24   47 1
  50   24   48 1
  51   25   49 1
  52   25   50 1
  53   25   51 1
  54   27   52 1
  55   28   53 1
  56   28   54 1
  57   28   55 1

#	End of record

