#	Name: ASD01900103
#	Creating user name:	WinNT
#	Creation time:	15. 06. 2019 19:51

#	Modifying user name:	WinNT
#	Modification time:	15. 06. 2019 19:51

#	Program:	/corina/corina34_cracker 3.40 0067  02.08.2006

@<TRIPOS>MOLECULE
ASD01900103
  44   47    0    0    0
SMALL
NO_CHARGES


@<TRIPOS>ATOM
   1 C1            -0.0168     1.3890     0.0097 C.ar    
   2 C2             0.0021    -0.0041     0.0020 C.ar    
   3 C3             1.2224    -0.6606    -0.0131 C.ar    
   4 C4             2.3820     0.0992    -0.0201 C.ar    
   5 C5             2.2884     1.4815    -0.0118 C.ar    
   6 N6             1.1169     2.0792     0.0026 N.ar    
   7 C7            -1.3131     2.1060     0.0197 C.2     
   8 O8            -2.3544     1.4790     0.0212 O.2     
   9 N9            -1.3379     3.4535     0.0271 N.am    
  10 N10           -4.0732     5.7272     0.0534 N.am    
  11 N11           -4.7377     4.4942     0.0499 N.2     
  12 C12           -3.8404     3.5422     0.0399 C.2     
  13 C13           -2.5688     4.1343     0.0366 C.2     
  14 C14           -2.7375     5.4816     0.0451 C.2     
  15 S15           -4.7895     7.2203     0.0593 S.o2    
  16 O16           -3.8372     8.1244    -0.4836 O.2     
  17 O17           -6.0907     7.0433    -0.4837 O.2     
  18 O18           -5.5377     8.7763     5.6929 O.3     
  19 C19           -5.3703     8.4122     4.3884 C.ar    
  20 C20           -4.1976     8.7498     3.7272 C.ar    
  21 O21           -3.2255     9.4419     4.3891 O.3     
  22 C22           -2.5561     8.7337     5.4344 C.3     
  23 C23           -3.3436     8.8173     6.7325 C.3     
  24 C24           -4.6912     8.1191     6.6383 C.3     
  25 C25           -4.0182     8.3860     2.4038 C.ar    
  26 C26           -5.0126     7.6851     1.7442 C.ar    
  27 C27           -6.1803     7.3488     2.4027 C.ar    
  28 C28           -6.3627     7.7106     3.7259 C.ar    
  29 H29           -0.9212    -0.5644     0.0082 H       
  30 H30            1.2690    -1.7395    -0.0190 H       
  31 H31            3.3489    -0.3818    -0.0315 H       
  32 H32            3.1898     2.0764    -0.0168 H       
  33 H33           -0.5069     3.9539     0.0259 H       
  34 H34           -4.0440     2.4815     0.0350 H       
  35 H35           -1.9523     6.2231     0.0452 H       
  36 H36           -2.4481     7.6878     5.1470 H       
  37 H37           -1.5677     9.1674     5.5858 H       
  38 H38           -2.7611     8.3545     7.5292 H       
  39 H39           -3.5060     9.8663     6.9800 H       
  40 H40           -5.1702     8.1303     7.6173 H       
  41 H41           -4.5389     7.0860     6.3260 H       
  42 H42           -3.1062     8.6482     1.8880 H       
  43 H43           -6.9529     6.8017     1.8829 H       
  44 H44           -7.2754     7.4467     4.2395 H       
@<TRIPOS>BOND
   1    1    2 ar
   2    1    6 ar
   3    1    7 1
   4    2    3 ar
   5    2   29 1
   6    3    4 ar
   7    3   30 1
   8    4    5 ar
   9    4   31 1
  10    5    6 ar
  11    5   32 1
  12    7    8 2
  13    7    9 am
  14    9   13 1
  15    9   33 1
  16   10   11 1
  17   10   14 1
  18   10   15 am
  19   11   12 2
  20   12   13 1
  21   12   34 1
  22   13   14 2
  23   14   35 1
  24   15   16 2
  25   15   17 2
  26   15   26 1
  27   18   19 1
  28   18   24 1
  29   19   20 ar
  30   19   28 ar
  31   20   21 1
  32   20   25 ar
  33   21   22 1
  34   22   23 1
  35   22   36 1
  36   22   37 1
  37   23   24 1
  38   23   38 1
  39   23   39 1
  40   24   40 1
  41   24   41 1
  42   25   26 ar
  43   25   42 1
  44   26   27 ar
  45   27   28 ar
  46   27   43 1
  47   28   44 1

#	End of record

