#	Name: ASD03092591
#	Creating user name:	WinNT
#	Creation time:	15. 06. 2019 20:32

#	Modifying user name:	WinNT
#	Modification time:	15. 06. 2019 20:32

#	Program:	/corina/corina34_cracker 3.40 0067  02.08.2006

@<TRIPOS>MOLECULE
ASD03092591
  42   44    0    0    0
SMALL
NO_CHARGES


@<TRIPOS>ATOM
   1 N1            -0.0169     1.3951     0.0097 N.pl3   
   2 N2             0.0021    -0.0041     0.0020 N.2     
   3 C3             1.2418    -0.4097    -0.0120 C.2     
   4 C4             2.0751     0.7313    -0.0138 C.2     
   5 C5             1.2504     1.8383    -0.0000 C.2     
   6 C6             3.5493     0.7384    -0.0274 C.2     
   7 O7             4.1523     1.7944    -0.0271 O.2     
   8 N8             4.2287    -0.4256    -0.0402 N.am    
   9 C9            -1.2173     2.2349     0.0202 C.3     
  10 C10           -2.1156     1.8553    -1.1587 C.3     
  11 F11           -2.4861     0.5107    -1.0486 F       
  12 F12           -3.2619     2.6572    -1.1486 F       
  13 F13           -1.4202     2.0508    -2.3568 F       
  14 C14            5.6936    -0.4186    -0.0537 C.3     
  15 C15            6.1897    -0.2824    -1.4947 C.3     
  16 N16            7.8087    -5.0913     2.2741 N.pl3   
  17 C17            8.8497    -4.5512     2.9791 C.2     
  18 C18            8.8840    -3.2216     2.7980 C.2     
  19 C19            7.7743    -2.8824     1.9040 C.ar    
  20 C20            7.2978    -1.6888     1.3580 C.ar    
  21 C21            6.2076    -1.7072     0.5348 C.ar    
  22 C22            5.5691    -2.9033     0.2365 C.ar    
  23 C23            6.0221    -4.0922     0.7646 C.ar    
  24 C24            7.1307    -4.0970     1.6053 C.ar    
  25 C25            9.8144    -5.3333     3.8328 C.3     
  26 H26            1.5732    -1.4376    -0.0201 H       
  27 H27            1.5666     2.8709     0.0025 H       
  28 H28            3.7477    -1.2679    -0.0405 H       
  29 H29           -1.7591     2.0825     0.9537 H       
  30 H30           -0.9286     3.2825    -0.0655 H       
  31 H31            6.0584     0.4217     0.5371 H       
  32 H32            7.2796    -0.2771    -1.5047 H       
  33 H33            5.8249    -1.1226    -2.0855 H       
  34 H34            5.8179     0.6497    -1.9204 H       
  35 H35            7.5844    -6.0346     2.2464 H       
  36 H36            9.5949    -2.5326     3.2296 H       
  37 H37            7.7889    -0.7544     1.5862 H       
  38 H38            4.7084    -2.9017    -0.4158 H       
  39 H39            5.5184    -5.0175     0.5269 H       
  40 H40           10.6634    -5.6484     3.2262 H       
  41 H41           10.1660    -4.7057     4.6518 H       
  42 H42            9.3115    -6.2114     4.2381 H       
@<TRIPOS>BOND
   1    1    2 1
   2    1    5 1
   3    1    9 1
   4    2    3 2
   5    3    4 1
   6    3   26 1
   7    4    5 2
   8    4    6 1
   9    5   27 1
  10    6    7 2
  11    6    8 am
  12    8   14 1
  13    8   28 1
  14    9   10 1
  15    9   29 1
  16    9   30 1
  17   10   11 1
  18   10   12 1
  19   10   13 1
  20   14   15 1
  21   14   21 1
  22   14   31 1
  23   15   32 1
  24   15   33 1
  25   15   34 1
  26   16   17 1
  27   16   24 1
  28   16   35 1
  29   17   18 2
  30   17   25 1
  31   18   19 1
  32   18   36 1
  33   19   20 ar
  34   19   24 ar
  35   20   21 ar
  36   20   37 1
  37   21   22 ar
  38   22   23 ar
  39   22   38 1
  40   23   24 ar
  41   23   39 1
  42   25   40 1
  43   25   41 1
  44   25   42 1

#	End of record

