#	Name: ASD01884688
#	Creating user name:	WinNT
#	Creation time:	15. 06. 2019 19:48

#	Modifying user name:	WinNT
#	Modification time:	15. 06. 2019 19:48

#	Program:	/corina/corina34_cracker 3.40 0067  02.08.2006

@<TRIPOS>MOLECULE
ASD01884688
  62   64    0    0    0
SMALL
NO_CHARGES


@<TRIPOS>ATOM
   1 C1            -0.0168     1.3884     0.0097 C.2     
   2 C2             0.0021    -0.0041     0.0020 C.2     
   3 C3            -1.2095    -0.6965     0.0104 C.2     
   4 C4            -2.3831    -0.0157     0.0252 C.2     
   5 N5            -2.4093     1.3392     0.0327 N.am    
   6 C6            -1.2693     2.0558     0.0312 C.2     
   7 O7            -1.3129     3.2741     0.0383 O.2     
   8 C8            -3.6983     2.0352     0.0483 C.3     
   9 C9             1.2059     2.1337     0.0020 C.1     
  10 N10            2.1759     2.7249    -0.0041 N.1     
  11 C11            1.3105    -0.7515    -0.0155 C.3     
  12 C12           -4.1338     2.2698     1.4962 C.3     
  13 C13           -5.4800     2.9967     1.5124 C.3     
  14 C14           -6.5555     2.0919     0.9078 C.3     
  15 C15           -5.8558     3.3419     2.9548 C.3     
  16 N16            1.6901    -1.1066     1.3585 N.3     
  17 C17            2.8328    -2.0383     1.3670 C.3     
  18 C18            3.9488    -1.3853     2.2094 C.3     
  19 C19            3.1718    -0.3800     3.0996 C.3     
  20 C20            2.0581     0.0969     2.1343 C.3     
  21 C21            4.6600    -2.4320     3.0694 C.3     
  22 C22            5.2826    -3.4975     2.1651 C.3     
  23 C23            5.7588    -1.7554     3.8915 C.3     
  24 C24            5.8767    -4.5920     3.0138 C.ar    
  25 C25            5.1062    -5.6802     3.3761 C.ar    
  26 C26            5.6524    -6.6858     4.1560 C.ar    
  27 C27            6.9700    -6.5994     4.5717 C.ar    
  28 C28            7.7389    -5.5098     4.2080 C.ar    
  29 C29            7.1942    -4.5095     3.4249 C.ar    
  30 F30            4.8998    -7.7500     4.5112 F       
  31 H31           -1.2130    -1.7765     0.0046 H       
  32 H32           -3.3137    -0.5638     0.0308 H       
  33 H33           -3.5999     2.9937    -0.4613 H       
  34 H34           -4.4456     1.4275    -0.4619 H       
  35 H35            1.2023    -1.6595    -0.6087 H       
  36 H36            2.0835    -0.1207    -0.4544 H       
  37 H37           -4.2323     1.3113     2.0058 H       
  38 H38           -3.3866     2.8775     2.0064 H       
  39 H39           -5.4052     3.9132     0.9272 H       
  40 H40           -6.6304     1.1754     1.4930 H       
  41 H41           -7.5146     2.6098     0.9194 H       
  42 H42           -6.2878     1.8460    -0.1198 H       
  43 H43           -5.0896     3.9865     3.3856 H       
  44 H44           -6.8149     3.8597     2.9664 H       
  45 H45           -5.9307     2.4254     3.5401 H       
  46 H46            2.5354    -2.9858     1.8162 H       
  47 H47            3.1849    -2.2025     0.3486 H       
  48 H48            4.6598    -0.8635     1.5690 H       
  49 H49            2.7464    -0.8778     3.9710 H       
  50 H50            3.8106     0.4507     3.3995 H       
  51 H51            2.4378     0.8743     1.4713 H       
  52 H52            1.1993     0.4630     2.6970 H       
  53 H53            3.9403    -2.9005     3.7408 H       
  54 H54            4.5140    -3.9176     1.5162 H       
  55 H55            6.0649    -3.0450     1.5558 H       
  56 H56            6.4784    -1.2868     3.2202 H       
  57 H57            5.3152    -0.9962     4.5358 H       
  58 H58            6.2655    -2.5010     4.5042 H       
  59 H59            4.0782    -5.7464     3.0515 H       
  60 H60            7.3970    -7.3828     5.1802 H       
  61 H61            8.7668    -5.4422     4.5322 H       
  62 H62            7.7958    -3.6587     3.1409 H       
@<TRIPOS>BOND
   1    1    2 2
   2    1    9 1
   3    1    6 1
   4    2    3 1
   5    2   11 1
   6    3    4 2
   7    3   31 1
   8    4    5 1
   9    4   32 1
  10    5    8 1
  11    5    6 am
  12    6    7 2
  13    8   12 1
  14    8   33 1
  15    8   34 1
  16    9   10 3
  17   11   16 1
  18   11   35 1
  19   11   36 1
  20   12   13 1
  21   12   37 1
  22   12   38 1
  23   13   14 1
  24   13   15 1
  25   13   39 1
  26   14   40 1
  27   14   41 1
  28   14   42 1
  29   15   43 1
  30   15   44 1
  31   15   45 1
  32   16   17 1
  33   16   20 1
  34   17   18 1
  35   17   46 1
  36   17   47 1
  37   18   19 1
  38   18   21 1
  39   18   48 1
  40   19   20 1
  41   19   49 1
  42   19   50 1
  43   20   51 1
  44   20   52 1
  45   21   22 1
  46   21   23 1
  47   21   53 1
  48   22   24 1
  49   22   54 1
  50   22   55 1
  51   23   56 1
  52   23   57 1
  53   23   58 1
  54   24   25 ar
  55   24   29 ar
  56   25   26 ar
  57   25   59 1
  58   26   27 ar
  59   26   30 1
  60   27   28 ar
  61   27   60 1
  62   28   29 ar
  63   28   61 1
  64   29   62 1

#	End of record

