#	Name: ASD01411219
#	Creating user name:	WinNT
#	Creation time:	15. 06. 2019 19:19

#	Modifying user name:	WinNT
#	Modification time:	15. 06. 2019 19:19

#	Program:	/corina/corina34_cracker 3.40 0067  02.08.2006

@<TRIPOS>MOLECULE
ASD01411219
  65   68    0    0    0
SMALL
NO_CHARGES


@<TRIPOS>ATOM
   1 C1            -0.4909     0.0336    -2.1239 C.ar    
   2 C2            -0.2177    -1.3064    -2.0077 C.ar    
   3 C3             1.0531    -1.8076    -2.2819 C.ar    
   4 C4             2.0578    -0.9327    -2.6722 C.ar    
   5 C5             1.7893     0.4171    -2.7885 C.ar    
   6 C6             0.5187     0.9072    -2.5177 C.ar    
   7 P7            -1.4922    -2.4942    -1.4870 P.3     
   8 N8            -0.7146    -3.9012    -1.1266 N.2     
   9 C9             0.5224    -4.0638    -1.4840 C.2     
  10 N10            1.2949    -3.1752    -2.1671 N.pl3   
  11 C11            1.1563    -5.3425    -1.1114 C.2     
  12 C12            0.5506    -6.3533    -0.4294 C.2     
  13 C13            1.5802    -7.4497    -0.2800 C.3     
  14 N14            2.7963    -6.9543    -0.9361 N.am    
  15 C15            2.5350    -5.7277    -1.4223 C.2     
  16 O16           -2.1984    -1.9858    -0.2898 O.2     
  17 O17           -2.5406    -2.7364    -2.6846 O.3     
  18 O18           -0.7152    -6.3723     0.0230 O.3     
  19 O19            3.3307    -5.0360    -2.0295 O.2     
  20 C20           -3.3266    -1.6880    -3.2547 C.3     
  21 C21           -4.2120    -2.2598    -4.3638 C.3     
  22 C22            1.8527    -7.7185     1.2013 C.3     
  23 C23            0.5307    -7.9897     1.9220 C.3     
  24 C24            2.7677    -8.9371     1.3386 C.3     
  25 C25            2.5323    -6.4976     1.8246 C.3     
  26 N26            0.2537     2.2757    -2.6407 N.am    
  27 S27            0.1233     3.2189    -1.2859 S.o2    
  28 O28           -0.0323     4.5380    -1.7909 O.2     
  29 O29           -0.9050     2.5996    -0.5254 O.2     
  30 C30            1.7255     3.0405    -0.4542 C.3     
  31 C31            4.0686    -7.6720    -1.0473 C.3     
  32 C32            4.0509    -8.5375    -2.2808 C.2     
  33 C33            4.4705    -8.1565    -3.5595 C.2     
  34 N34            4.3043    -9.1745    -4.3645 N.2     
  35 N35            3.7728   -10.2371    -3.6223 N.pl3   
  36 C36            3.6318    -9.8225    -2.3458 C.2     
  37 H37           -1.4827     0.4068    -1.9156 H       
  38 H38            3.0484    -1.3071    -2.8843 H       
  39 H39            2.5727     1.0957    -3.0923 H       
  40 H40            2.0823    -3.5244    -2.6132 H       
  41 H41            1.2335    -8.3596    -0.7698 H       
  42 H42           -1.2556    -5.5896    -0.1518 H       
  43 H43           -3.9539    -1.2430    -2.4823 H       
  44 H44           -2.6683    -0.9260    -3.6719 H       
  45 H45           -4.8115    -1.4601    -4.7987 H       
  46 H46           -3.5847    -2.7049    -5.1363 H       
  47 H47           -4.8703    -3.0218    -3.9467 H       
  48 H48            0.0465    -8.8595     1.4780 H       
  49 H49            0.7248    -8.1813     2.9774 H       
  50 H50           -0.1212    -7.1216     1.8242 H       
  51 H51            3.8066    -8.6254     1.2297 H       
  52 H52            2.6251    -9.3898     2.3198 H       
  53 H53            2.5234    -9.6640     0.5640 H       
  54 H54            1.8804    -5.6295     1.7268 H       
  55 H55            2.7264    -6.6892     2.8800 H       
  56 H56            3.4742    -6.3044     1.3112 H       
  57 H57            0.1464     2.6718    -3.5196 H       
  58 H58            2.5255     3.3016    -1.1469 H       
  59 H59            1.7622     3.7040     0.4099 H       
  60 H60            1.8515     2.0088    -0.1257 H       
  61 H61            4.8857    -6.9542    -1.1188 H       
  62 H62            4.2108    -8.2979    -0.1663 H       
  63 H63            4.8635    -7.1890    -3.8349 H       
  64 H64            3.5493   -11.1167    -3.9646 H       
  65 H65            3.2503   -10.4102    -1.5240 H       
@<TRIPOS>BOND
   1    1    2 ar
   2    1    6 ar
   3    1   37 1
   4    2    3 ar
   5    2    7 1
   6    3    4 ar
   7    3   10 1
   8    4    5 ar
   9    4   38 1
  10    5    6 ar
  11    5   39 1
  12    6   26 1
  13    7    8 1
  14    7   16 2
  15    7   17 1
  16    8    9 2
  17    9   10 1
  18    9   11 1
  19   10   40 1
  20   11   12 2
  21   11   15 1
  22   12   13 1
  23   12   18 1
  24   13   14 1
  25   13   22 1
  26   13   41 1
  27   14   15 am
  28   14   31 1
  29   15   19 2
  30   17   20 1
  31   18   42 1
  32   20   21 1
  33   20   43 1
  34   20   44 1
  35   21   45 1
  36   21   46 1
  37   21   47 1
  38   22   23 1
  39   22   24 1
  40   22   25 1
  41   23   48 1
  42   23   49 1
  43   23   50 1
  44   24   51 1
  45   24   52 1
  46   24   53 1
  47   25   54 1
  48   25   55 1
  49   25   56 1
  50   26   27 am
  51   26   57 1
  52   27   28 2
  53   27   29 2
  54   27   30 1
  55   30   58 1
  56   30   59 1
  57   30   60 1
  58   31   32 1
  59   31   61 1
  60   31   62 1
  61   32   33 1
  62   32   36 2
  63   33   34 2
  64   33   63 1
  65   34   35 1
  66   35   36 1
  67   35   64 1
  68   36   65 1

#	End of record

