#	Name: ASD01150665
#	Creating user name:	WinNT
#	Creation time:	15. 06. 2019 19:04

#	Modifying user name:	WinNT
#	Modification time:	15. 06. 2019 19:04

#	Program:	/corina/corina34_cracker 3.40 0067  02.08.2006

@<TRIPOS>MOLECULE
ASD01150665
  46   48    0    0    0
SMALL
NO_CHARGES


@<TRIPOS>ATOM
   1 C1             1.9151     1.4013     0.9689 C.ar    
   2 C2             1.9600     0.0211     0.9431 C.ar    
   3 C3             0.4929     0.0048    -0.9570 C.ar    
   4 C4             0.4451     1.3913    -0.9338 C.ar    
   5 C5             1.1571     2.0910     0.0301 C.ar    
   6 N6             1.1117     3.4891     0.0571 N.am    
   7 C7            -0.0767     4.1147    -0.0074 C.2     
   8 N8            -0.1584     5.4579     0.0161 N.am    
   9 C9             0.9635     6.2020     0.1055 C.2     
  10 C10            2.2683     5.5238     0.1769 C.2     
  11 N11            2.3038     4.2162     0.1566 N.2     
  12 O12            0.8979     7.4169     0.1264 O.2     
  13 C13           -1.4669     6.1128    -0.0561 C.3     
  14 O14           -1.0955     3.4553    -0.0886 O.2     
  15 C15           -2.0090     6.3069     1.3366 C.ar    
  16 N16            3.4470     6.2632     0.2696 N.pl3   
  17 C17            4.7390     5.5763     0.3400 C.3     
  18 C18            1.2524    -0.6785    -0.0159 C.ar    
  19 N19           -0.2240    -0.7046    -1.9271 N.am    
  20 C20            0.2653    -1.8619    -2.4145 C.2     
  21 O21            1.3673    -2.2429    -2.0805 O.2     
  22 C22           -0.5568    -2.6827    -3.3744 C.3     
  23 C23           -1.7248     7.4667     2.0331 C.ar    
  24 C24           -2.2217     7.6454     3.3105 C.ar    
  25 C25           -3.0036     6.6632     3.8919 C.ar    
  26 C26           -3.2876     5.5027     3.1943 C.ar    
  27 C27           -2.7949     5.3276     1.9148 C.ar    
  28 Cl28          -3.6275     6.8866     5.4964 Cl      
  29 H29            2.4659     1.9450     1.7222 H       
  30 H30            2.5498    -0.5126     1.6737 H       
  31 H31           -0.1447     1.9248    -1.6645 H       
  32 H32           -1.3617     7.0821    -0.5434 H       
  33 H33           -2.1536     5.4903    -0.6298 H       
  34 H34            3.4114     7.2324     0.2874 H       
  35 H35            4.7614     4.9337     1.2202 H       
  36 H36            4.8778     4.9707    -0.5556 H       
  37 H37            5.5392     6.3133     0.4078 H       
  38 H38            1.2903    -1.7577    -0.0338 H       
  39 H39           -1.0731    -0.3633    -2.2487 H       
  40 H40           -0.3397    -2.3720    -4.3964 H       
  41 H41           -0.3093    -3.7375    -3.2549 H       
  42 H42           -1.6161    -2.5322    -3.1663 H       
  43 H43           -1.1142     8.2332     1.5793 H       
  44 H44           -1.9993     8.5513     3.8547 H       
  45 H45           -3.8979     4.7356     3.6476 H       
  46 H46           -3.0165     4.4218     1.3702 H       
@<TRIPOS>BOND
   1    1    2 ar
   2    1    5 ar
   3    1   29 1
   4    2   18 ar
   5    2   30 1
   6    3    4 ar
   7    3   19 1
   8    3   18 ar
   9    4    5 ar
  10    4   31 1
  11    5    6 1
  12    6    7 am
  13    6   11 1
  14    7    8 am
  15    7   14 2
  16    8    9 am
  17    8   13 1
  18    9   10 1
  19    9   12 2
  20   10   11 2
  21   10   16 1
  22   13   15 1
  23   13   32 1
  24   13   33 1
  25   15   23 ar
  26   15   27 ar
  27   16   17 1
  28   16   34 1
  29   17   35 1
  30   17   36 1
  31   17   37 1
  32   18   38 1
  33   19   20 am
  34   19   39 1
  35   20   21 2
  36   20   22 1
  37   22   40 1
  38   22   41 1
  39   22   42 1
  40   23   24 ar
  41   23   43 1
  42   24   25 ar
  43   24   44 1
  44   25   26 ar
  45   25   28 1
  46   26   27 ar
  47   26   45 1
  48   27   46 1

#	End of record

