#	Name: ASD02590009
#	Creating user name:	WinNT
#	Creation time:	15. 06. 2019 20:25

#	Modifying user name:	WinNT
#	Modification time:	15. 06. 2019 20:25

#	Program:	/corina/corina34_cracker 3.40 0067  02.08.2006

@<TRIPOS>MOLECULE
ASD02590009
  28   30    0    0    0
SMALL
NO_CHARGES


@<TRIPOS>ATOM
   1 C1            -0.0168     1.3902     0.0097 C.ar    
   2 C2             0.0021    -0.0041     0.0020 C.ar    
   3 C3            -1.1765    -0.7175     0.0090 C.ar    
   4 C4            -2.3922    -0.0476     0.0242 C.ar    
   5 C5            -2.4215     1.3588     0.0325 C.ar    
   6 C6            -1.2188     2.0729     0.0306 C.ar    
   7 N7            -3.7117    -0.4597     0.0342 N.pl3   
   8 C8            -4.4872     0.6675     0.0479 C.2     
   9 N9            -3.7235     1.7319     0.0468 N.2     
  10 C10           -5.9670     0.6820     0.0623 C.ar    
  11 C11           -6.6464     1.8992     0.0755 C.ar    
  12 C12           -8.0311     1.8964     0.0885 C.ar    
  13 C13           -8.6908     0.6762     0.0877 C.ar    
  14 C14           -7.9529    -0.4947     0.0741 C.ar    
  15 N15           -6.6370    -0.4645     0.0569 N.ar    
  16 S16            1.4999     2.2869     0.0000 S.3     
  17 C17            2.7506     0.9731    -0.0190 C.3     
  18 H18            0.9465    -0.5279    -0.0098 H       
  19 H19           -1.1545    -1.7973     0.0023 H       
  20 H20           -1.2292     3.1528     0.0369 H       
  21 H21           -4.0285    -1.3765     0.0319 H       
  22 H22           -6.1006     2.8311     0.0761 H       
  23 H23           -8.5850     2.8235     0.0993 H       
  24 H24           -9.7702     0.6402     0.0979 H       
  25 H25           -8.4638    -1.4462     0.0735 H       
  26 H26            2.6204     0.3605    -0.9111 H       
  27 H27            3.7454     1.4186    -0.0261 H       
  28 H28            2.6374     0.3509     0.8688 H       
@<TRIPOS>BOND
   1    1    2 ar
   2    1   16 1
   3    1    6 ar
   4    2    3 ar
   5    2   18 1
   6    3    4 ar
   7    3   19 1
   8    4    5 ar
   9    4    7 1
  10    5    6 ar
  11    5    9 1
  12    6   20 1
  13    7    8 1
  14    7   21 1
  15    8    9 2
  16    8   10 1
  17   10   11 ar
  18   10   15 ar
  19   11   12 ar
  20   11   22 1
  21   12   13 ar
  22   12   23 1
  23   13   14 ar
  24   13   24 1
  25   14   15 ar
  26   14   25 1
  27   16   17 1
  28   17   26 1
  29   17   27 1
  30   17   28 1

#	End of record

