#	Name: ASD01200073
#	Creating user name:	WinNT
#	Creation time:	15. 06. 2019 19:08

#	Modifying user name:	WinNT
#	Modification time:	15. 06. 2019 19:08

#	Program:	/corina/corina34_cracker 3.40 0067  02.08.2006

@<TRIPOS>MOLECULE
ASD01200073
  30   32    0    0    0
SMALL
NO_CHARGES


@<TRIPOS>ATOM
   1 C1            -0.0015     2.2826    -0.6515 C.ar    
   2 C2            -0.3018     0.9361    -0.7102 C.ar    
   3 C3             0.6899     0.0147    -0.4215 C.ar    
   4 C4             1.9397     0.4509    -0.0505 C.ar    
   5 C5             2.2383     1.7982     0.1211 C.ar    
   6 C6             1.2559     2.7134    -0.2754 C.ar    
   7 S7             3.2472    -0.7333     0.1391 S.o2    
   8 N8             4.5973     0.2580     0.0419 N.am    
   9 C9             4.5276     1.3942     0.9803 C.3     
  10 N10            3.4108     2.2853     0.6849 N.3     
  11 C11            3.0871     2.9442     1.9573 C.3     
  12 O12            3.1815    -1.2179     1.4684 O.2     
  13 O13            3.2458    -1.5464    -1.0210 O.2     
  14 C14            2.8173     2.0486     3.1681 C.3     
  15 C15            4.1179     2.8500     3.0840 C.3     
  16 C16            1.5482     4.1891    -0.3935 C.3     
  17 Cl17          -1.8972     0.4048    -1.1374 Cl      
  18 H18           -0.7591     3.0135    -0.8982 H       
  19 H19            0.4793    -1.0424    -0.4872 H       
  20 H20            5.3294     0.0957    -0.5614 H       
  21 H21            4.4172     1.0144     1.9996 H       
  22 H22            5.4591     1.9649     0.9233 H       
  23 H23            2.5128     3.8671     1.8760 H       
  24 H24            2.0658     2.3825     3.8836 H       
  25 H25            2.8800     0.9705     3.0206 H       
  26 H26            5.0363     2.2991     2.8811 H       
  27 H27            4.2221     3.7111     3.7441 H       
  28 H28            1.7908     4.4298    -1.4286 H       
  29 H29            0.6723     4.7590    -0.0837 H       
  30 H30            2.3929     4.4445     0.2464 H       
@<TRIPOS>BOND
   1    1    2 ar
   2    1    6 ar
   3    1   18 1
   4    2    3 ar
   5    2   17 1
   6    3    4 ar
   7    3   19 1
   8    4    5 ar
   9    4    7 1
  10    5    6 ar
  11    5   10 1
  12    6   16 1
  13    7    8 am
  14    7   12 2
  15    7   13 2
  16    8    9 1
  17    8   20 1
  18    9   10 1
  19    9   21 1
  20    9   22 1
  21   10   11 1
  22   11   14 1
  23   11   15 1
  24   11   23 1
  25   14   15 1
  26   14   24 1
  27   14   25 1
  28   15   26 1
  29   15   27 1
  30   16   28 1
  31   16   29 1
  32   16   30 1

#	End of record

