#	Name: ASD08178022
#	Creating user name:	WinNT
#	Creation time:	15. 06. 2019 21:18

#	Modifying user name:	WinNT
#	Modification time:	15. 06. 2019 21:18

#	Program:	/corina/corina34_cracker 3.40 0067  02.08.2006

@<TRIPOS>MOLECULE
ASD08178022
  53   54    0    0    0
SMALL
NO_CHARGES


@<TRIPOS>ATOM
   1 C1            -0.0184     1.5028     0.0103 C.2     
   2 C2             0.0021    -0.0041     0.0020 C.3     
   3 O3            -0.1842    -2.6320     0.3109 O.2     
   4 C4            -0.7866    -2.0385     1.1803 C.2     
   5 C5            -0.8070    -0.5316     1.1886 C.3     
   6 N6            -0.8119    -4.8612     1.2567 N.2     
   7 C7            -1.4188    -4.1171     2.1314 C.2     
   8 N8            -1.4377    -2.7265     2.1390 N.am    
   9 N9            -0.8947    -6.1135     1.3942 N.2     
  10 C10           -1.5837    -6.5413     2.4041 C.2     
  11 S11           -2.1930    -5.1325     3.2734 S.3     
  12 C12           -1.8219    -7.9835     2.7706 C.3     
  13 C13           -0.7135    -8.4605     3.7112 C.3     
  14 S14           -1.0002   -10.1965     4.1524 S.3     
  15 C15            0.3922   -10.5734     5.2522 C.3     
  16 C16            0.2941   -12.0269     5.7196 C.3     
  17 C17            1.4509   -12.3401     6.6332 C.2     
  18 N18            1.4686   -12.1959     7.9203 N.2     
  19 N19            2.5382   -12.5158     8.5098 N.2     
  20 C20            3.5191   -12.9575     7.7819 C.2     
  21 S21            3.0214   -12.9760     6.1428 S.3     
  22 N22            4.7651   -13.3543     8.2553 N.am    
  23 C23            1.1071     2.1731     0.0032 C.2     
  24 C24            5.0341   -13.2975     9.5747 C.2     
  25 O25            4.1895   -12.9003    10.3492 O.2     
  26 C26            6.3843   -13.7275    10.0877 C.3     
  27 C27            6.4274   -13.5651    11.6084 C.3     
  28 C28            7.7776   -13.9951    12.1214 C.2     
  29 C29            8.4930   -13.1748    12.8504 C.2     
  30 H30           -0.9609     2.0300     0.0176 H       
  31 H31           -0.4361    -0.3683    -0.9272 H       
  32 H32            1.0315    -0.3539     0.0799 H       
  33 H33           -0.3688    -0.1674     2.1178 H       
  34 H34           -1.8364    -0.1818     1.1107 H       
  35 H35           -1.9194    -2.2518     2.8343 H       
  36 H36           -2.7867    -8.0771     3.2692 H       
  37 H37           -1.8192    -8.5932     1.8671 H       
  38 H38            0.2513    -8.3669     3.2127 H       
  39 H39           -0.7163    -7.8507     4.6147 H       
  40 H40            1.3294   -10.4269     4.7151 H       
  41 H41            0.3618    -9.9108     6.1171 H       
  42 H42           -0.6431   -12.1734     6.2566 H       
  43 H43            0.3245   -12.6895     4.8546 H       
  44 H44            5.4406   -13.6720     7.6359 H       
  45 H45            2.0496     1.6459    -0.0087 H       
  46 H46            1.0924     3.2530     0.0091 H       
  47 H47            6.5553   -14.7724     9.8289 H       
  48 H48            7.1590   -13.1093     9.6342 H       
  49 H49            6.2563   -12.5202    11.8673 H       
  50 H50            5.6527   -14.1833    12.0620 H       
  51 H51            8.1555   -14.9796    11.8880 H       
  52 H52            8.1151   -12.1904    13.0838 H       
  53 H53            9.4606   -13.4830    13.2180 H       
@<TRIPOS>BOND
   1    1    2 1
   2    1   23 2
   3    1   30 1
   4    2    5 1
   5    2   31 1
   6    2   32 1
   7    3    4 2
   8    4    5 1
   9    4    8 am
  10    5   33 1
  11    5   34 1
  12    6    7 2
  13    6    9 1
  14    7    8 1
  15    7   11 1
  16    8   35 1
  17    9   10 2
  18   10   11 1
  19   10   12 1
  20   12   13 1
  21   12   36 1
  22   12   37 1
  23   13   14 1
  24   13   38 1
  25   13   39 1
  26   14   15 1
  27   15   16 1
  28   15   40 1
  29   15   41 1
  30   16   17 1
  31   16   42 1
  32   16   43 1
  33   17   18 2
  34   17   21 1
  35   18   19 1
  36   19   20 2
  37   20   21 1
  38   20   22 1
  39   22   24 am
  40   22   44 1
  41   23   45 1
  42   23   46 1
  43   24   25 2
  44   24   26 1
  45   26   27 1
  46   26   47 1
  47   26   48 1
  48   27   28 1
  49   27   49 1
  50   27   50 1
  51   28   29 2
  52   28   51 1
  53   29   52 1
  54   29   53 1

#	End of record

