#	Name: ASD08178522
#	Creating user name:	WinNT
#	Creation time:	15. 06. 2019 21:19

#	Modifying user name:	WinNT
#	Modification time:	15. 06. 2019 21:19

#	Program:	/corina/corina34_cracker 3.40 0067  02.08.2006

@<TRIPOS>MOLECULE
ASD08178522
  56   59    0    0    0
SMALL
NO_CHARGES


@<TRIPOS>ATOM
   1 C1            -1.4661     2.1848    -0.1198 C.ar    
   2 C2            -1.3545     0.8074    -0.1310 C.ar    
   3 C3            -0.2913     2.9390    -0.1290 C.ar    
   4 N4             0.8863     2.3315    -0.1480 N.ar    
   5 N5             0.9972     1.0528    -0.1584 N.ar    
   6 C6            -0.0652     0.2521    -0.1509 C.ar    
   7 C7             0.1056    -1.1696    -0.1627 C.1     
   8 N8            -0.3570     4.3306    -0.1188 N.am    
   9 C9             0.7737     5.0579    -0.0226 C.2     
  10 O10            1.8385     4.5035     0.1492 O.2     
  11 C11            0.7146     6.5600    -0.1286 C.3     
  12 C12            2.1033     7.1284     0.0109 C.ar    
  13 C13            2.8910     7.3114    -1.1102 C.ar    
  14 C14            2.5874     7.4720     1.2593 C.ar    
  15 C15            3.8613     7.9934     1.3872 C.ar    
  16 C16            4.6512     8.1707     0.2667 C.ar    
  17 C17            4.1649     7.8328    -0.9823 C.ar    
  18 C18            0.5498    -4.8679    -0.1932 C.1     
  19 C19            0.7206    -6.2896    -0.2049 C.ar    
  20 C20           -0.4006    -7.1346    -0.1970 C.ar    
  21 N21            1.9422    -6.8157    -0.2290 N.ar    
  22 N22            2.1373    -8.0843    -0.2406 N.ar    
  23 C23            1.1371    -8.9537    -0.2295 C.ar    
  24 C24           -0.1829    -8.4994    -0.2094 C.ar    
  25 N25            1.4029   -10.3212    -0.2430 N.am    
  26 C26            2.6713   -10.7600    -0.3654 C.2     
  27 C27            2.9489   -12.2355    -0.4951 C.3     
  28 O28            3.5893    -9.9675    -0.3711 O.2     
  29 C29            4.4344   -12.4584    -0.6167 C.ar    
  30 C30            5.1998   -12.6495     0.5184 C.ar    
  31 C31            6.5624   -12.8539     0.4068 C.ar    
  32 C32            7.1595   -12.8676    -0.8399 C.ar    
  33 C33            6.3939   -12.6774    -1.9750 C.ar    
  34 C34            5.0307   -12.4773    -1.8637 C.ar    
  35 C35            0.2456    -2.3352    -0.1723 C.1     
  36 C36            0.4098    -3.7023    -0.1836 C.1     
  37 H37           -2.4340     2.6639    -0.1088 H       
  38 H38           -2.2319     0.1776    -0.1242 H       
  39 H39           -1.2164     4.7761    -0.1809 H       
  40 H40            0.3031     6.8400    -1.0983 H       
  41 H41            0.0790     6.9554     0.6637 H       
  42 H42            2.5113     7.0468    -2.0861 H       
  43 H43            1.9702     7.3334     2.1347 H       
  44 H44            4.2392     8.2625     2.3625 H       
  45 H45            5.6463     8.5783     0.3666 H       
  46 H46            4.7821     7.9713    -1.8577 H       
  47 H47           -1.4021    -6.7307    -0.1814 H       
  48 H48           -1.0096    -9.1942    -0.2002 H       
  49 H49            0.6750   -10.9575    -0.1643 H       
  50 H50            2.5747   -12.7546     0.3872 H       
  51 H51            2.4496   -12.6225    -1.3834 H       
  52 H52            4.7334   -12.6388     1.4924 H       
  53 H53            7.1606   -13.0025     1.2937 H       
  54 H54            8.2242   -13.0266    -0.9270 H       
  55 H55            6.8605   -12.6878    -2.9490 H       
  56 H56            4.4325   -12.3287    -2.7506 H       
@<TRIPOS>BOND
   1    1    2 ar
   2    1    3 ar
   3    1   37 1
   4    2    6 ar
   5    2   38 1
   6    3    4 ar
   7    3    8 1
   8    4    5 ar
   9    5    6 ar
  10    6    7 1
  11    7   35 3
  12    8    9 am
  13    8   39 1
  14    9   10 2
  15    9   11 1
  16   11   12 1
  17   11   40 1
  18   11   41 1
  19   12   13 ar
  20   12   14 ar
  21   13   17 ar
  22   13   42 1
  23   14   15 ar
  24   14   43 1
  25   15   16 ar
  26   15   44 1
  27   16   17 ar
  28   16   45 1
  29   17   46 1
  30   18   19 1
  31   18   36 3
  32   19   20 ar
  33   19   21 ar
  34   20   24 ar
  35   20   47 1
  36   21   22 ar
  37   22   23 ar
  38   23   24 ar
  39   23   25 1
  40   24   48 1
  41   25   26 am
  42   25   49 1
  43   26   27 1
  44   26   28 2
  45   27   29 1
  46   27   50 1
  47   27   51 1
  48   29   30 ar
  49   29   34 ar
  50   30   31 ar
  51   30   52 1
  52   31   32 ar
  53   31   53 1
  54   32   33 ar
  55   32   54 1
  56   33   34 ar
  57   33   55 1
  58   34   56 1
  59   35   36 1

#	End of record

