#	Name: ASD07300297
#	Creating user name:	WinNT
#	Creation time:	15. 06. 2019 21:09

#	Modifying user name:	WinNT
#	Modification time:	15. 06. 2019 21:09

#	Program:	/corina/corina34_cracker 3.40 0067  02.08.2006

@<TRIPOS>MOLECULE
ASD07300297
  49   52    0    0    0
SMALL
NO_CHARGES


@<TRIPOS>ATOM
   1 C1            -0.0169     1.3940     0.0097 C.ar    
   2 C2             0.0021    -0.0041     0.0020 C.ar    
   3 C3             1.2191    -0.6684    -0.0132 C.ar    
   4 C4             2.3836     0.0929    -0.0202 C.ar    
   5 C5             2.2881     1.4765    -0.0119 C.ar    
   6 N6             1.1146     2.0785     0.0026 N.ar    
   7 C7            -2.1147     0.6611     0.0347 C.2     
   8 N8            -1.3563     1.7730     0.0302 N.am    
   9 N9            -1.3233    -0.4283     0.0129 N.am    
  10 O10           -3.3312     0.6429     0.0520 O.2     
  11 C11           -1.7792    -1.8205     0.0099 C.3     
  12 C12           -1.9236    -2.3129     1.4513 C.3     
  13 O13            3.6012    -0.5125    -0.0347 O.3     
  14 C14            4.7489     0.3388    -0.0411 C.3     
  15 F15            4.7200     1.1520    -1.1791 F       
  16 F16            4.7413     1.1405     1.1053 F       
  17 C17           -1.8349     3.0917     0.0445 C.ar    
  18 C18           -3.2017     3.3342     0.0645 C.ar    
  19 C19           -3.6722     4.6324     0.0785 C.ar    
  20 C20           -2.7794     5.6941     0.0726 C.ar    
  21 C21           -1.4136     5.4524     0.0526 C.ar    
  22 C22           -0.9418     4.1546     0.0443 C.ar    
  23 O23           -3.2433     6.9721     0.0860 O.3     
  24 C24           -2.2678     8.0164     0.0789 C.3     
  25 C25           -2.9631     9.3533     0.0956 C.ar    
  26 C26           -3.2661     9.9598     1.3004 C.ar    
  27 C27           -3.9039    11.1861     1.3157 C.ar    
  28 C28           -4.2383    11.8062     0.1264 C.ar    
  29 C29           -3.9346    11.2002    -1.0783 C.ar    
  30 C30           -3.2929     9.9759    -1.0937 C.ar    
  31 H31            1.2619    -1.7476    -0.0190 H       
  32 H32            3.1898     2.0710    -0.0170 H       
  33 H33           -2.7431    -1.8862    -0.4948 H       
  34 H34           -1.0515    -2.4399    -0.5145 H       
  35 H35           -2.2627    -3.3488     1.4491 H       
  36 H36           -0.9597    -2.2473     1.9560 H       
  37 H37           -2.6512    -1.6935     1.9757 H       
  38 H38            5.6529    -0.2702    -0.0527 H       
  39 H39           -3.8968     2.5077     0.0687 H       
  40 H40           -4.7355     4.8211     0.0937 H       
  41 H41           -0.7189     6.2794     0.0476 H       
  42 H42            0.1216     3.9665     0.0333 H       
  43 H43           -1.6325     7.9262     0.9600 H       
  44 H44           -1.6562     7.9362    -0.8198 H       
  45 H45           -3.0048     9.4753     2.2296 H       
  46 H46           -4.1412    11.6596     2.2570 H       
  47 H47           -4.7373    12.7640     0.1384 H       
  48 H48           -4.1962    11.6845    -2.0075 H       
  49 H49           -3.0522     9.5041    -2.0350 H       
@<TRIPOS>BOND
   1    1    2 ar
   2    1    6 ar
   3    1    8 1
   4    2    3 ar
   5    2    9 1
   6    3    4 ar
   7    3   31 1
   8    4    5 ar
   9    4   13 1
  10    5    6 ar
  11    5   32 1
  12    7    8 am
  13    7    9 am
  14    7   10 2
  15    8   17 1
  16    9   11 1
  17   11   12 1
  18   11   33 1
  19   11   34 1
  20   12   35 1
  21   12   36 1
  22   12   37 1
  23   13   14 1
  24   14   15 1
  25   14   16 1
  26   14   38 1
  27   17   18 ar
  28   17   22 ar
  29   18   19 ar
  30   18   39 1
  31   19   20 ar
  32   19   40 1
  33   20   21 ar
  34   20   23 1
  35   21   22 ar
  36   21   41 1
  37   22   42 1
  38   23   24 1
  39   24   25 1
  40   24   43 1
  41   24   44 1
  42   25   26 ar
  43   25   30 ar
  44   26   27 ar
  45   26   45 1
  46   27   28 ar
  47   27   46 1
  48   28   29 ar
  49   28   47 1
  50   29   30 ar
  51   29   48 1
  52   30   49 1

#	End of record

