#	Name: ASD02500270
#	Creating user name:	WinNT
#	Creation time:	15. 06. 2019 20:22

#	Modifying user name:	WinNT
#	Modification time:	15. 06. 2019 20:22

#	Program:	/corina/corina34_cracker 3.40 0067  02.08.2006

@<TRIPOS>MOLECULE
ASD02500270
  63   67    0    0    0
SMALL
NO_CHARGES


@<TRIPOS>ATOM
   1 N1            -3.0295     5.5545    -0.6430 N.ar    
   2 C2            -4.1267     6.1778    -0.9980 C.ar    
   3 C3            -5.3116     6.0446    -0.2772 C.ar    
   4 C4            -5.3494     5.2474     0.8311 C.ar    
   5 C5            -4.1693     4.5792     1.2091 C.ar    
   6 C6            -4.1314     3.7435     2.3365 C.ar    
   7 C7            -2.9702     3.1149     2.6695 C.ar    
   8 C8            -1.8181     3.2905     1.9062 C.ar    
   9 C9            -1.8192     4.0934     0.8072 C.ar    
  10 C10           -2.9986     4.7593     0.4312 C.ar    
  11 S11           -0.3476     4.2981    -0.1400 S.o2    
  12 O12           -0.1197     5.6979    -0.2297 O.2     
  13 O13            0.6038     3.3885     0.3952 O.2     
  14 N14           -0.6779     3.7787    -1.6773 N.am    
  15 C15           -0.9386     2.4313    -1.9163 C.ar    
  16 C16           -0.5041     1.8371    -3.1030 C.ar    
  17 C17           -0.7620     0.5024    -3.3404 C.ar    
  18 C18           -1.4585    -0.2521    -2.3910 C.ar    
  19 C19           -1.8907     0.3479    -1.2056 C.ar    
  20 C20           -1.6259     1.6792    -0.9707 C.ar    
  21 O21            0.1726     2.5737    -4.0246 O.3     
  22 C22            0.5870     1.9010    -5.2154 C.3     
  23 C23           -1.7368    -1.6791    -2.6409 C.2     
  24 O24           -2.1303    -2.0396    -3.7335 O.2     
  25 N25           -1.5548    -2.5834    -1.6582 N.am    
  26 C26           -1.6926    -4.0211    -1.9298 C.3     
  27 C27           -0.4012    -4.7273    -1.4986 C.3     
  28 N28           -0.0610    -4.2932    -0.1364 N.am    
  29 C29            0.0769    -2.8555     0.1352 C.3     
  30 C30           -1.2090    -2.1496    -0.2973 C.3     
  31 C31            0.6640    -4.7691     2.1548 C.ar    
  32 C32            0.7139    -5.6763     3.2146 C.ar    
  33 C33            1.2319    -5.2591     4.4342 C.ar    
  34 C34            1.6799    -3.9537     4.5493 C.ar    
  35 C35            1.5995    -3.1076     3.4541 C.ar    
  36 N36            1.1049    -3.5264     2.3103 N.ar    
  37 C37            0.1210    -5.1975     0.8463 C.2     
  38 O38           -0.1607    -6.3646     0.6579 O.2     
  39 F39            0.2648    -6.9407     3.0567 F       
  40 H40           -4.1117     6.8117    -1.8723 H       
  41 H41           -6.1993     6.5717    -0.5943 H       
  42 H42           -6.2591     5.1330     1.4018 H       
  43 H43           -5.0180     3.6001     2.9364 H       
  44 H44           -2.9420     2.4722     3.5369 H       
  45 H45           -0.9092     2.7815     2.1914 H       
  46 H46           -0.6899     4.4126    -2.4114 H       
  47 H47           -0.4269     0.0415    -4.2579 H       
  48 H48           -2.4290    -0.2331    -0.4715 H       
  49 H49           -1.9567     2.1406    -0.0520 H       
  50 H50            1.2507     1.0766    -4.9547 H       
  51 H51           -0.2880     1.5123    -5.7363 H       
  52 H52            1.1144     2.6010    -5.8634 H       
  53 H53           -2.5345    -4.4211    -1.3647 H       
  54 H54           -1.8569    -4.1779    -2.9959 H       
  55 H55           -0.5527    -5.8066    -1.5116 H       
  56 H56            0.4066    -4.4606    -2.1801 H       
  57 H57            0.2411    -2.6987     1.2012 H       
  58 H58            0.9187    -2.4555    -0.4300 H       
  59 H59           -1.0540    -1.0707    -0.2855 H       
  60 H60           -2.0157    -2.4133     0.3868 H       
  61 H61            1.2838    -5.9370     5.2734 H       
  62 H62            2.0878    -3.5980     5.4839 H       
  63 H63            1.9479    -2.0891     3.5419 H       
@<TRIPOS>BOND
   1    1    2 ar
   2    1   10 ar
   3    2    3 ar
   4    2   40 1
   5    3    4 ar
   6    3   41 1
   7    4    5 ar
   8    4   42 1
   9    5    6 ar
  10    5   10 ar
  11    6    7 ar
  12    6   43 1
  13    7    8 ar
  14    7   44 1
  15    8    9 ar
  16    8   45 1
  17    9   10 ar
  18    9   11 1
  19   11   12 2
  20   11   13 2
  21   11   14 am
  22   14   15 1
  23   14   46 1
  24   15   16 ar
  25   15   20 ar
  26   16   17 ar
  27   16   21 1
  28   17   18 ar
  29   17   47 1
  30   18   19 ar
  31   18   23 1
  32   19   20 ar
  33   19   48 1
  34   20   49 1
  35   21   22 1
  36   22   50 1
  37   22   51 1
  38   22   52 1
  39   23   24 2
  40   23   25 am
  41   25   26 1
  42   25   30 1
  43   26   27 1
  44   26   53 1
  45   26   54 1
  46   27   28 1
  47   27   55 1
  48   27   56 1
  49   28   29 1
  50   28   37 am
  51   29   30 1
  52   29   57 1
  53   29   58 1
  54   30   59 1
  55   30   60 1
  56   31   32 ar
  57   31   36 ar
  58   31   37 1
  59   32   33 ar
  60   32   39 1
  61   33   34 ar
  62   33   61 1
  63   34   35 ar
  64   34   62 1
  65   35   36 ar
  66   35   63 1
  67   37   38 2

#	End of record

