#	Name: ASD01410836
#	Creating user name:	WinNT
#	Creation time:	15. 06. 2019 19:18

#	Modifying user name:	WinNT
#	Modification time:	15. 06. 2019 19:18

#	Program:	/corina/corina34_cracker 3.40 0067  02.08.2006

@<TRIPOS>MOLECULE
ASD01410836
 126  133    0    0    0
SMALL
NO_CHARGES


@<TRIPOS>ATOM
   1 C1             0.3176     2.4494     2.1676 C.3     
   2 C2             0.4226     1.0643     2.8471 C.3     
   3 N3             0.8187     1.3651     4.2384 N.am    
   4 C4             0.3367     2.7095     4.5782 C.3     
   5 C5            -0.3090     3.3002     3.3059 C.3     
   6 O6             1.6091     2.9442     1.8081 O.3     
   7 C7            -0.6877     2.6233     5.6802 C.2     
   8 O8            -0.9914     1.5441     6.1428 O.2     
   9 N9            -1.2664     3.7456     6.1516 N.am    
  10 C10            1.5578     0.2585     2.2060 C.3     
  11 N11            1.8308    -0.8984     3.0682 N.am    
  12 C12            2.1509    -0.7158     4.4822 C.3     
  13 C13            1.5351     0.5435     5.0240 C.2     
  14 O14            1.6879     0.8238     6.1941 O.2     
  15 C15            1.6217    -1.9131     5.2742 C.3     
  16 C16            1.8376    -1.6712     6.7694 C.3     
  17 C17            0.1273    -2.0880     4.9964 C.3     
  18 C18           -2.3445     3.6545     7.1393 C.3     
  19 C19           -3.6183     3.0121     6.6537 C.2     
  20 N20           -3.7579     2.6921     5.3520 N.am    
  21 O21           -4.5177     2.7830     7.4344 O.2     
  22 S22           -5.2011     2.1012     4.7948 S.o2    
  23 C23           -6.3670     3.4735     5.0139 C.3     
  24 C24           -1.9478     3.4222     8.5986 C.3     
  25 C25           -2.4694     4.7914     8.1555 C.3     
  26 C26           -7.8397     3.2069     4.6960 C.3     
  27 C27           -7.3864     3.3600     6.1493 C.3     
  28 O28           -4.9706     1.8584     3.4138 O.2     
  29 O29           -5.5108     1.0370     5.6841 O.2     
  30 C30           -2.8611     2.5689     9.4406 C.2     
  31 C31           -2.4091     1.4674     9.9870 C.2     
  32 C32            1.6594     3.8767     0.8248 C.ar    
  33 C33            2.8971     4.4000     0.3831 C.ar    
  34 C34            0.5130     4.3329     0.2289 C.ar    
  35 C35            0.5920     5.2968    -0.7856 C.ar    
  36 N36            1.7539     5.7831    -1.1881 N.ar    
  37 C37            2.9053     5.3726    -0.6472 C.ar    
  38 C38           -0.6520     5.7805    -1.4203 C.2     
  39 S39           -2.2817     5.2526    -1.0088 S.3     
  40 C40            4.1343     5.8977    -1.0834 C.ar    
  41 C41            5.3050     5.4566    -0.5078 C.ar    
  42 C42            5.2845     4.4932     0.5047 C.ar    
  43 C43            4.1075     3.9722     0.9476 C.ar    
  44 Cl44           4.1758     7.0943    -2.3404 Cl      
  45 O45            6.4932     5.9632    -0.9292 O.3     
  46 C46            7.6725     5.4658    -0.2935 C.3     
  47 N47           -0.7198     6.6696    -2.3697 N.2     
  48 C48           -1.9139     6.9788    -2.8140 C.2     
  49 C49           -2.9368     6.3392    -2.2323 C.2     
  50 C50           -2.1227     7.9926    -3.9093 C.3     
  51 C51           -2.2224     7.2744    -5.2566 C.3     
  52 C52           -3.4157     8.7674    -3.6475 C.3     
  53 C53            8.9026     6.1477    -0.8956 C.3     
  54 N54            8.8688     7.5829    -0.5837 N.3     
  55 C55           10.1415     8.2288    -0.9364 C.3     
  56 C56           10.0419     9.7297    -0.6514 C.3     
  57 O57            9.6969     9.9272     0.7224 O.3     
  58 C58            8.4625     9.3118     1.1002 C.3     
  59 C59            8.5460     7.8066     0.8330 C.3     
  60 O60            1.5829    -2.3140     1.2302 O.3     
  61 C61            1.5454    -3.6809     0.7419 C.3     
  62 C62            0.4108    -4.4389     1.4341 C.3     
  63 C63            1.3080    -3.6763    -0.7696 C.3     
  64 C64            2.8781    -4.3680     1.0466 C.3     
  65 C65            1.7852    -2.1418     2.5501 C.2     
  66 O66            1.9266    -3.1073     3.2741 O.2     
  67 H67           -0.3401     2.4108     1.2992 H       
  68 H68           -0.5274     0.5311     2.8104 H       
  69 H69            1.1723     3.3340     4.8941 H       
  70 H70           -0.0441     4.3513     3.1918 H       
  71 H71           -1.3915     3.1748     3.3294 H       
  72 H72           -0.9690     4.6136     5.8368 H       
  73 H73            1.2549    -0.0825     1.2160 H       
  74 H74            2.4510     0.8782     2.1262 H       
  75 H75            3.2334    -0.6625     4.5989 H       
  76 H76            2.1555    -2.8138     4.9711 H       
  77 H77            1.3039    -0.7704     7.0725 H       
  78 H78            1.4606    -2.5241     7.3337 H       
  79 H79            2.9023    -1.5465     6.9673 H       
  80 H80           -0.4064    -1.1873     5.2995 H       
  81 H81           -0.0265    -2.2604     3.9312 H       
  82 H82           -0.2497    -2.9410     5.5607 H       
  83 H83           -3.0131     2.8080     4.7415 H       
  84 H84           -5.9745     4.4647     4.7868 H       
  85 H85           -0.8847     3.3371     8.8238 H       
  86 H86           -1.7493     5.6070     8.0895 H       
  87 H87           -3.4729     5.0745     8.4732 H       
  88 H88           -8.4161     4.0228     4.2600 H       
  89 H89           -8.1079     2.2069     4.3552 H       
  90 H90           -7.3564     2.4607     6.7645 H       
  91 H91           -7.6646     4.2766     6.6693 H       
  92 H92           -3.8883     2.8655     9.5935 H       
  93 H93           -3.0636     0.8559    10.5903 H       
  94 H94           -1.3819     1.1708     9.8341 H       
  95 H95           -0.4481     3.9508     0.5396 H       
  96 H96            6.2137     4.1605     0.9433 H       
  97 H97            4.1059     3.2284     1.7307 H       
  98 H98            7.6261     5.6775     0.7748 H       
  99 H99            7.7419     4.3891    -0.4479 H       
 100 H100          -3.9822     6.4679    -2.4708 H       
 101 H101          -1.2815     8.6854    -3.9283 H       
 102 H102          -3.0637     6.5815    -5.2376 H       
 103 H103          -2.3734     8.0076    -6.0489 H       
 104 H104          -1.3012     6.7224    -5.4432 H       
 105 H105          -3.3447     9.2790    -2.6876 H       
 106 H106          -3.5667     9.5006    -4.4397 H       
 107 H107          -4.2570     8.0745    -3.6285 H       
 108 H108           9.8056     5.7056    -0.4747 H       
 109 H109           8.9011     6.0108    -1.9770 H       
 110 H110          10.9458     7.7977    -0.3403 H       
 111 H111          10.3480     8.0722    -1.9951 H       
 112 H112          11.0016    10.2037    -0.8575 H       
 113 H113           9.2736    10.1706    -1.2866 H       
 114 H114           8.2798     9.4836     2.1610 H       
 115 H115           7.6483     9.7405     0.5160 H       
 116 H116           7.5879     7.3419     1.0658 H       
 117 H117           9.3249     7.3688     1.4573 H       
 118 H118          -0.5386    -3.9494     1.2169 H       
 119 H119           0.3828    -5.4650     1.0675 H       
 120 H120           0.5800    -4.4422     2.5108 H       
 121 H121           2.1163    -3.1363    -1.2627 H       
 122 H122           1.2799    -4.7024    -1.1361 H       
 123 H123           0.3586    -3.1868    -0.9867 H       
 124 H124           3.0473    -4.3714     2.1234 H       
 125 H125           2.8500    -5.3942     0.6801 H       
 126 H126           3.6864    -3.8281     0.5535 H       
@<TRIPOS>BOND
   1    1    2 1
   2    1    6 1
   3    1    5 1
   4    1   67 1
   5    2    3 1
   6    2   10 1
   7    2   68 1
   8    3    4 1
   9    3   13 am
  10    4    5 1
  11    4    7 1
  12    4   69 1
  13    5   70 1
  14    5   71 1
  15    6   32 1
  16    7    8 2
  17    7    9 am
  18    9   18 1
  19    9   72 1
  20   10   11 1
  21   10   73 1
  22   10   74 1
  23   11   12 1
  24   11   65 am
  25   12   13 1
  26   12   15 1
  27   12   75 1
  28   13   14 2
  29   15   16 1
  30   15   17 1
  31   15   76 1
  32   16   77 1
  33   16   78 1
  34   16   79 1
  35   17   80 1
  36   17   81 1
  37   17   82 1
  38   18   19 1
  39   18   24 1
  40   18   25 1
  41   19   20 am
  42   19   21 2
  43   20   22 am
  44   20   83 1
  45   22   23 1
  46   22   28 2
  47   22   29 2
  48   23   26 1
  49   23   27 1
  50   23   84 1
  51   24   25 1
  52   24   30 1
  53   24   85 1
  54   25   86 1
  55   25   87 1
  56   26   27 1
  57   26   88 1
  58   26   89 1
  59   27   90 1
  60   27   91 1
  61   30   31 2
  62   30   92 1
  63   31   93 1
  64   31   94 1
  65   32   33 ar
  66   32   34 ar
  67   33   37 ar
  68   33   43 ar
  69   34   35 ar
  70   34   95 1
  71   35   36 ar
  72   35   38 1
  73   36   37 ar
  74   37   40 ar
  75   38   47 2
  76   38   39 1
  77   39   49 1
  78   40   41 ar
  79   40   44 1
  80   41   42 ar
  81   41   45 1
  82   42   43 ar
  83   42   96 1
  84   43   97 1
  85   45   46 1
  86   46   53 1
  87   46   98 1
  88   46   99 1
  89   47   48 1
  90   48   49 2
  91   48   50 1
  92   49  100 1
  93   50   51 1
  94   50   52 1
  95   50  101 1
  96   51  102 1
  97   51  103 1
  98   51  104 1
  99   52  105 1
 100   52  106 1
 101   52  107 1
 102   53   54 1
 103   53  108 1
 104   53  109 1
 105   54   55 1
 106   54   59 1
 107   55   56 1
 108   55  110 1
 109   55  111 1
 110   56   57 1
 111   56  112 1
 112   56  113 1
 113   57   58 1
 114   58   59 1
 115   58  114 1
 116   58  115 1
 117   59  116 1
 118   59  117 1
 119   60   61 1
 120   60   65 1
 121   61   62 1
 122   61   63 1
 123   61   64 1
 124   62  118 1
 125   62  119 1
 126   62  120 1
 127   63  121 1
 128   63  122 1
 129   63  123 1
 130   64  124 1
 131   64  125 1
 132   64  126 1
 133   65   66 2

#	End of record

