#	Name: ASD03491016
#	Creating user name:	WinNT
#	Creation time:	15. 06. 2019 20:42

#	Modifying user name:	WinNT
#	Modification time:	15. 06. 2019 20:42

#	Program:	/corina/corina34_cracker 3.40 0067  02.08.2006

@<TRIPOS>MOLECULE
ASD03491016
  80   84    0    0    0
SMALL
NO_CHARGES


@<TRIPOS>ATOM
   1 C1             0.5240     1.4337    -0.9032 C.ar    
   2 C2             0.4464     0.0955    -1.2635 C.ar    
   3 C3             1.5457    -0.7374    -1.0789 C.ar    
   4 C4             2.7179    -0.2238    -0.5334 C.ar    
   5 C5             2.7855     1.1172    -0.1759 C.ar    
   6 C6             1.6913     1.9397    -0.3613 C.ar    
   7 C7             1.7699     3.3934     0.0281 C.3     
   8 N8             3.8265    -1.0561    -0.3447 N.am    
   9 C9             5.0724    -0.5593    -0.4767 C.2     
  10 O10            5.2333     0.5860    -0.8468 O.2     
  11 C11            7.5979    -0.8384    -0.1782 C.ar    
  12 C12            8.7769    -1.6938    -0.0229 C.ar    
  13 C13           10.0609    -1.1010    -0.0432 C.ar    
  14 C14           10.1776     0.2964    -0.2114 C.ar    
  15 C15            9.0491     1.0821    -0.3549 C.ar    
  16 C16            7.7805     0.5374    -0.3414 C.ar    
  17 C17            8.6566    -3.0766     0.1443 C.ar    
  18 C18            9.7795    -3.8395     0.2862 C.ar    
  19 C19           11.0437    -3.2591     0.2670 C.ar    
  20 C20           11.1949    -1.9140     0.1049 C.ar    
  21 C21            3.1577     3.6945     0.5975 C.3     
  22 C22            1.5242     4.2656    -1.2047 C.3     
  23 C23            0.7077     3.6959     1.0869 C.3     
  24 C24            6.2523    -1.4154    -0.1685 C.2     
  25 O25            6.0978    -2.5928     0.0909 O.2     
  26 O26           11.4038     0.8710    -0.2317 O.3     
  27 C27           12.1114     0.8197    -1.3865 C.ar    
  28 C28           13.4192     1.2995    -1.4359 C.ar    
  29 C29           14.1038     1.2269    -2.6350 C.ar    
  30 N30           13.5017     0.7074    -3.6938 N.ar    
  31 C31           12.2572     0.2591    -3.6168 C.ar    
  32 N32           11.5706     0.3067    -2.4852 N.ar    
  33 N33           11.6618    -0.2766    -4.7455 N.3     
  34 C34           12.5819    -0.2453    -5.8917 C.3     
  35 C35           11.9062    -0.8998    -7.0996 C.3     
  36 O36           10.6756    -0.2250    -7.3746 O.3     
  37 C37            9.7555    -0.2366    -6.2798 C.3     
  38 C38           10.4094     0.4245    -5.0636 C.3     
  39 N39           -0.7360    -0.4155    -1.8115 N.am    
  40 S40           -1.6769     0.5378    -2.7853 S.o2    
  41 O41           -2.7111    -0.3290    -3.2305 O.2     
  42 O42           -1.9683     1.6758    -1.9858 O.2     
  43 C43           -0.5881     0.9903    -4.1639 C.3     
  44 O44            1.4742    -2.0501    -1.4302 O.3     
  45 C45            1.8560    -2.3860    -2.7657 C.3     
  46 H46           -0.3272     2.0818    -1.0504 H       
  47 H47            3.6949     1.5171     0.2476 H       
  48 H48            3.6985    -1.9907    -0.1190 H       
  49 H49            9.1627     2.1486    -0.4819 H       
  50 H50            6.9209     1.1810    -0.4564 H       
  51 H51            7.6806    -3.5385     0.1615 H       
  52 H52            9.6853    -4.9076     0.4153 H       
  53 H53           11.9178    -3.8831     0.3815 H       
  54 H54           12.1822    -1.4763     0.0916 H       
  55 H55            3.9145     3.4790    -0.1568 H       
  56 H56            3.2146     4.7459     0.8792 H       
  57 H57            3.3328     3.0731     1.4757 H       
  58 H58            0.5355     4.0511    -1.6103 H       
  59 H59            1.5811     5.3171    -0.9230 H       
  60 H60            2.2810     4.0501    -1.9589 H       
  61 H61            0.8827     3.0745     1.9651 H       
  62 H62            0.7645     4.7474     1.3685 H       
  63 H63           -0.2811     3.4814     0.6812 H       
  64 H64           13.8871     1.7189    -0.5575 H       
  65 H65           15.1184     1.5901    -2.7073 H       
  66 H66           12.8314     0.7886    -6.1301 H       
  67 H67           13.4916    -0.7919    -5.6432 H       
  68 H68           12.5624    -0.8279    -7.9669 H       
  69 H69           11.7052    -1.9484    -6.8803 H       
  70 H70            8.8562     0.3149    -6.5542 H       
  71 H71            9.4919    -1.2660    -6.0367 H       
  72 H72            9.7333     0.3669    -4.2105 H       
  73 H73           10.6241     1.4692    -5.2887 H       
  74 H74           -1.0043    -1.3279    -1.6207 H       
  75 H75           -0.2563     0.0873    -4.6764 H       
  76 H76           -1.1319     1.6257    -4.8629 H       
  77 H77            0.2781     1.5297    -3.7808 H       
  78 H78            1.2135    -1.8587    -3.4708 H       
  79 H79            2.8932    -2.0946    -2.9312 H       
  80 H80            1.7526    -3.4609    -2.9136 H       
@<TRIPOS>BOND
   1    1    2 ar
   2    1    6 ar
   3    1   46 1
   4    2    3 ar
   5    2   39 1
   6    3    4 ar
   7    3   44 1
   8    4    5 ar
   9    4    8 1
  10    5    6 ar
  11    5   47 1
  12    6    7 1
  13    7   21 1
  14    7   22 1
  15    7   23 1
  16    8    9 am
  17    8   48 1
  18    9   10 2
  19    9   24 1
  20   11   12 ar
  21   11   16 ar
  22   11   24 1
  23   12   13 ar
  24   12   17 ar
  25   13   14 ar
  26   13   20 ar
  27   14   15 ar
  28   14   26 1
  29   15   16 ar
  30   15   49 1
  31   16   50 1
  32   17   18 ar
  33   17   51 1
  34   18   19 ar
  35   18   52 1
  36   19   20 ar
  37   19   53 1
  38   20   54 1
  39   21   55 1
  40   21   56 1
  41   21   57 1
  42   22   58 1
  43   22   59 1
  44   22   60 1
  45   23   61 1
  46   23   62 1
  47   23   63 1
  48   24   25 2
  49   26   27 1
  50   27   28 ar
  51   27   32 ar
  52   28   29 ar
  53   28   64 1
  54   29   30 ar
  55   29   65 1
  56   30   31 ar
  57   31   32 ar
  58   31   33 1
  59   33   34 1
  60   33   38 1
  61   34   35 1
  62   34   66 1
  63   34   67 1
  64   35   36 1
  65   35   68 1
  66   35   69 1
  67   36   37 1
  68   37   38 1
  69   37   70 1
  70   37   71 1
  71   38   72 1
  72   38   73 1
  73   39   40 am
  74   39   74 1
  75   40   41 2
  76   40   42 2
  77   40   43 1
  78   43   75 1
  79   43   76 1
  80   43   77 1
  81   44   45 1
  82   45   78 1
  83   45   79 1
  84   45   80 1

#	End of record

