#	Name: ASD01231389
#	Creating user name:	WinNT
#	Creation time:	15. 06. 2019 19:15

#	Modifying user name:	WinNT
#	Modification time:	15. 06. 2019 19:15

#	Program:	/corina/corina34_cracker 3.40 0067  02.08.2006

@<TRIPOS>MOLECULE
ASD01231389
  51   53    0    0    0
SMALL
NO_CHARGES


@<TRIPOS>ATOM
   1 C1            -1.6004     1.7635     0.9186 C.3     
   2 C2            -1.7330     0.2651     1.1980 C.3     
   3 C3            -3.1962    -0.0713     1.4924 C.3     
   4 S4            -1.1771    -0.6719    -0.2524 S.o2    
   5 O5            -2.0666    -0.4766    -1.3431 O.2     
   6 O6             0.2280    -0.5431    -0.4208 O.2     
   7 N7            -1.3938    -2.2578     0.1724 N.am    
   8 C8            -1.5148    -3.4678     2.3304 C.3     
   9 C9            -0.6001    -2.8407     1.2571 C.3     
  10 C10            0.2046    -4.0582     0.7550 C.3     
  11 C11            0.2190    -5.0296     1.9159 C.ar    
  12 C12            1.0322    -6.1229     2.1592 C.ar    
  13 C13            0.8583    -6.8784     3.3081 C.ar    
  14 C14           -0.1340    -6.5360     4.2154 C.ar    
  15 C15           -0.9431    -5.4453     3.9701 C.ar    
  16 C16           -0.7691    -4.6903     2.8215 C.ar    
  17 O17            1.6573    -7.9519     3.5452 O.3     
  18 C18            1.4204    -8.6837     4.7495 C.3     
  19 C19            2.3946    -9.8298     4.8408 C.ar    
  20 C20            2.3576   -10.6873     5.9310 C.ar    
  21 C21            3.2558   -11.7413     6.0122 C.ar    
  22 C22            4.1847   -11.9347     5.0078 C.ar    
  23 C23            4.2198   -11.0786     3.9229 C.ar    
  24 C24            3.3214   -10.0308     3.8366 C.ar    
  25 O25            1.4433   -10.4947     6.9178 O.3     
  26 C26            1.4633   -11.4163     8.0097 C.3     
  27 F27            2.7118   -11.3666     8.6391 F       
  28 F28            0.4645   -11.0738     8.9274 F       
  29 F29            1.2333   -12.7108     7.5316 F       
  30 H30           -1.9344     2.3266     1.7901 H       
  31 H31           -0.5579     2.0032     0.7089 H       
  32 H32           -2.2144     2.0283     0.0578 H       
  33 H33           -1.1190     0.0003     2.0588 H       
  34 H34           -3.8200     0.2647     0.6641 H       
  35 H35           -3.3038    -1.1491     1.6144 H       
  36 H36           -3.5072     0.4309     2.4085 H       
  37 H37           -2.0463    -2.8008    -0.2970 H       
  38 H38           -1.6724    -2.7664     3.1498 H       
  39 H39           -2.4693    -3.7580     1.8912 H       
  40 H40            0.0608    -2.0950     1.6989 H       
  41 H41           -0.2877    -4.5072    -0.1077 H       
  42 H42            1.2212    -3.7601     0.4986 H       
  43 H43            1.8039    -6.3883     1.4518 H       
  44 H44           -0.2732    -7.1221     5.1118 H       
  45 H45           -1.7154    -5.1791     4.6765 H       
  46 H46            1.5534    -8.0245     5.6073 H       
  47 H47            0.4019    -9.0721     4.7442 H       
  48 H48            3.2292   -12.4099     6.8599 H       
  49 H49            4.8842   -12.7552     5.0706 H       
  50 H50            4.9471   -11.2311     3.1392 H       
  51 H51            3.3477    -9.3662     2.9857 H       
@<TRIPOS>BOND
   1    1    2 1
   2    1   30 1
   3    1   31 1
   4    1   32 1
   5    2    3 1
   6    2    4 1
   7    2   33 1
   8    3   34 1
   9    3   35 1
  10    3   36 1
  11    4    5 2
  12    4    6 2
  13    4    7 am
  14    7    9 1
  15    7   37 1
  16    8    9 1
  17    8   16 1
  18    8   38 1
  19    8   39 1
  20    9   10 1
  21    9   40 1
  22   10   11 1
  23   10   41 1
  24   10   42 1
  25   11   12 ar
  26   11   16 ar
  27   12   13 ar
  28   12   43 1
  29   13   14 ar
  30   13   17 1
  31   14   15 ar
  32   14   44 1
  33   15   16 ar
  34   15   45 1
  35   17   18 1
  36   18   19 1
  37   18   46 1
  38   18   47 1
  39   19   20 ar
  40   19   24 ar
  41   20   21 ar
  42   20   25 1
  43   21   22 ar
  44   21   48 1
  45   22   23 ar
  46   22   49 1
  47   23   24 ar
  48   23   50 1
  49   24   51 1
  50   25   26 1
  51   26   27 1
  52   26   28 1
  53   26   29 1

#	End of record

