#	Name: ASD01411276
#	Creating user name:	WinNT
#	Creation time:	15. 06. 2019 19:19

#	Modifying user name:	WinNT
#	Modification time:	15. 06. 2019 19:19

#	Program:	/corina/corina34_cracker 3.40 0067  02.08.2006

@<TRIPOS>MOLECULE
ASD01411276
  84   90    0    0    0
SMALL
NO_CHARGES


@<TRIPOS>ATOM
   1 C1            -0.0170     1.4058     0.0098 C.ar    
   2 C2             0.0021    -0.0041     0.0020 C.ar    
   3 C3            -1.2077    -0.7150     0.0475 C.ar    
   4 C4            -2.3917    -0.0427     0.1346 C.ar    
   5 C5            -2.4160     1.3547     0.1627 C.ar    
   6 C6            -1.2252     2.0809     0.0532 C.ar    
   7 N7             1.2942     1.8409    -0.0004 N.pl3   
   8 C8             2.1206     0.7409    -0.0379 C.2     
   9 C9             1.3649    -0.3911    -0.0376 C.2     
  10 C10            1.7138     3.2472     0.0240 C.3     
  11 C11            0.9014     3.9938     1.0524 C.2     
  12 N12            1.2262     5.2995     1.3296 N.am    
  13 O13           -0.0212     3.4519     1.6233 O.2     
  14 C14            0.3697     5.9206     2.3713 C.3     
  15 C15           -0.8631     6.5313     1.6958 C.3     
  16 C16           -1.9847     6.6274     2.7006 C.2     
  17 C17           -3.6563     2.1127     0.3802 C.2     
  18 O18           -4.6015     1.5967     0.9450 O.2     
  19 N19           -3.7351     3.4072    -0.0611 N.am    
  20 C20           -3.2190     6.3454     2.3545 C.2     
  21 C21           -3.5398     5.9344     0.9439 C.3     
  22 S22           -4.5903     4.4521     0.9221 S.o2    
  23 C23            3.5973     0.7823    -0.0733 C.ar    
  24 C24            4.2414     1.6655    -0.9257 C.ar    
  25 C25            1.8850    -1.8051    -0.0728 C.3     
  26 C26            1.4145    -2.5528     1.1764 C.3     
  27 C27            1.9426    -3.9883     1.1407 C.3     
  28 C28            1.4116    -4.6961    -0.1075 C.3     
  29 C29            1.8821    -3.9485    -1.3567 C.3     
  30 C30            1.3541    -2.5129    -1.3210 C.3     
  31 C31            5.6413     1.6987    -0.9534 C.ar    
  32 C32            6.3822     0.8309    -0.1114 C.ar    
  33 C33            5.6977    -0.0542     0.7434 C.ar    
  34 C34            4.3406    -0.0701     0.7619 C.ar    
  35 C35            6.3318     2.5842    -1.8086 C.ar    
  36 C36            7.6931     2.5700    -1.7911 C.ar    
  37 C37            8.3720     1.6857    -0.9332 C.ar    
  38 N38            7.7173     0.8601    -0.1352 N.ar    
  39 C39            9.8474     1.6798    -0.9239 C.2     
  40 C40           10.6366     0.8916    -0.1589 C.2     
  41 N41           11.9232     1.0809    -0.3391 N.2     
  42 C42           12.2757     1.9744    -1.2035 C.2     
  43 S43           10.8963     2.6928    -1.9131 S.3     
  44 C44           10.0865    -0.1169     0.8165 C.3     
  45 C45           13.7007     2.3286    -1.5425 C.3     
  46 O46           -5.7977     4.7002     0.2152 O.2     
  47 O47           -4.5966     3.8199     2.1947 O.2     
  48 H48           -1.2011    -1.7944     0.0132 H       
  49 H49           -3.3185    -0.5951     0.1818 H       
  50 H50           -1.2481     3.1596     0.0033 H       
  51 H51            2.7710     3.3068     0.2825 H       
  52 H52            1.5537     3.6915    -0.9584 H       
  53 H53            1.9484     5.7716     0.8864 H       
  54 H54            0.0556     5.1609     3.0870 H       
  55 H55            0.9289     6.7019     2.8861 H       
  56 H56           -0.6196     7.5272     1.3258 H       
  57 H57           -1.1730     5.8989     0.8638 H       
  58 H58           -1.7603     6.9319     3.7136 H       
  59 H59           -3.3216     3.6977    -0.8891 H       
  60 H60           -3.9959     6.4079     3.1035 H       
  61 H61           -4.0606     6.7503     0.4427 H       
  62 H62           -2.6118     5.7230     0.4126 H       
  63 H63            3.6686     2.3223    -1.5635 H       
  64 H64            2.9746    -1.7909    -0.0989 H       
  65 H65            1.7928    -2.0485     2.0657 H       
  66 H66            0.3249    -2.5670     1.2026 H       
  67 H67            3.0321    -3.9741     1.1146 H       
  68 H68            1.6074    -4.5210     2.0307 H       
  69 H69            1.7878    -5.7189    -0.1329 H       
  70 H70            0.3220    -4.7103    -0.0813 H       
  71 H71            2.9717    -3.9343    -1.3828 H       
  72 H72            1.5038    -4.4527    -2.2459 H       
  73 H73            0.2645    -2.5271    -1.2948 H       
  74 H74            1.6892    -1.9803    -2.2110 H       
  75 H75            6.2534    -0.7191     1.3880 H       
  76 H76            3.8247    -0.7524     1.4213 H       
  77 H77            5.7937     3.2560    -2.4609 H       
  78 H78            8.2501     3.2354    -2.4341 H       
  79 H79            9.9556    -1.0750     0.3133 H       
  80 H80           10.7815    -0.2351     1.6478 H       
  81 H81            9.1244     0.2298     1.1937 H       
  82 H82           14.0462     1.6993    -2.3627 H       
  83 H83           13.7538     3.3757    -1.8406 H       
  84 H84           14.3328     2.1669    -0.6693 H       
@<TRIPOS>BOND
   1    1    2 ar
   2    1    7 1
   3    1    6 ar
   4    2    3 ar
   5    2    9 1
   6    3    4 ar
   7    3   48 1
   8    4    5 ar
   9    4   49 1
  10    5    6 ar
  11    5   17 1
  12    6   50 1
  13    7    8 1
  14    7   10 1
  15    8    9 2
  16    8   23 1
  17    9   25 1
  18   10   11 1
  19   10   51 1
  20   10   52 1
  21   11   12 am
  22   11   13 2
  23   12   14 1
  24   12   53 1
  25   14   15 1
  26   14   54 1
  27   14   55 1
  28   15   16 1
  29   15   56 1
  30   15   57 1
  31   16   20 2
  32   16   58 1
  33   17   18 2
  34   17   19 am
  35   19   22 am
  36   19   59 1
  37   20   21 1
  38   20   60 1
  39   21   22 1
  40   21   61 1
  41   21   62 1
  42   22   46 2
  43   22   47 2
  44   23   24 ar
  45   23   34 ar
  46   24   31 ar
  47   24   63 1
  48   25   26 1
  49   25   30 1
  50   25   64 1
  51   26   27 1
  52   26   65 1
  53   26   66 1
  54   27   28 1
  55   27   67 1
  56   27   68 1
  57   28   29 1
  58   28   69 1
  59   28   70 1
  60   29   30 1
  61   29   71 1
  62   29   72 1
  63   30   73 1
  64   30   74 1
  65   31   32 ar
  66   31   35 ar
  67   32   33 ar
  68   32   38 ar
  69   33   34 ar
  70   33   75 1
  71   34   76 1
  72   35   36 ar
  73   35   77 1
  74   36   37 ar
  75   36   78 1
  76   37   38 ar
  77   37   39 1
  78   39   40 2
  79   39   43 1
  80   40   41 1
  81   40   44 1
  82   41   42 2
  83   42   43 1
  84   42   45 1
  85   44   79 1
  86   44   80 1
  87   44   81 1
  88   45   82 1
  89   45   83 1
  90   45   84 1

#	End of record

