#	Name: ASD01720132
#	Creating user name:	WinNT
#	Creation time:	15. 06. 2019 19:23

#	Modifying user name:	WinNT
#	Modification time:	15. 06. 2019 19:23

#	Program:	/corina/corina34_cracker 3.40 0067  02.08.2006

@<TRIPOS>MOLECULE
ASD01720132
  92   96    0    0    0
SMALL
NO_CHARGES


@<TRIPOS>ATOM
   1 C1             1.5561     8.0746    -1.6818 C.ar    
   2 C2             0.6961     8.1694    -2.7563 C.ar    
   3 C3             1.0650     7.6385    -3.9785 C.ar    
   4 C4             2.2914     7.0232    -4.1171 C.ar    
   5 C5             3.1621     6.9311    -3.0378 C.ar    
   6 C6             2.7888     7.4506    -1.8188 C.ar    
   7 C7             3.6698     7.3574    -0.5983 C.3     
   8 C8             4.4952     6.2702    -3.2704 C.3     
   9 C9             5.1111     5.8087    -1.9506 C.3     
  10 N10            5.0142     6.9224    -0.9916 N.am    
  11 C11            6.1165     7.5177    -0.4946 C.2     
  12 C12            5.9848     8.7400     0.3770 C.3     
  13 O13            7.2145     7.0696    -0.7487 O.2     
  14 C14            7.3753     9.2138     0.8046 C.3     
  15 C15            7.2435    10.4361     1.6762 C.2     
  16 C16            8.4471    11.0860     2.2190 C.ar    
  17 O17            6.1458    10.8840     1.9303 O.2     
  18 C18           10.7128    12.3100     3.2398 C.ar    
  19 C19           10.8383    11.1907     2.4354 C.ar    
  20 C20            9.7153    10.5758     1.9234 C.ar    
  21 C21            8.3290    12.2205     3.0282 C.ar    
  22 C22            9.4615    12.8241     3.5325 C.ar    
  23 C23            6.5578     5.4441    -2.1631 C.2     
  24 N24            7.0686     4.3435    -1.5765 N.am    
  25 O25            7.2624     6.1412    -2.8621 O.2     
  26 C26            8.4750     3.9891    -1.7831 C.3     
  27 C27            8.9600     3.1600    -0.6219 C.2     
  28 C28            8.6134     3.1847    -3.0772 C.3     
  29 N29           10.2325     2.7168    -0.5953 N.am    
  30 O30            8.2052     2.8916     0.2886 O.2     
  31 C31           10.7040     1.9108     0.5336 C.3     
  32 C32           12.1728     1.5407     0.3178 C.3     
  33 C33           12.6924     0.8174     1.5334 C.ar    
  34 C34           12.2933     0.6459    -0.8889 C.ar    
  35 C35           11.5211    -0.4968    -0.9818 C.ar    
  36 C36           11.6316    -1.3176    -2.0886 C.ar    
  37 C37           12.5141    -0.9954    -3.1026 C.ar    
  38 C38           13.2857     0.1478    -3.0101 C.ar    
  39 C39           13.1719     0.9709    -1.9053 C.ar    
  40 C40           12.4885    -0.9427     3.1438 C.ar    
  41 C41           12.0119    -0.2792     2.0287 C.ar    
  42 C42           13.8527     1.2471     2.1499 C.ar    
  43 C43           14.3293     0.5836     3.2651 C.ar    
  44 C44           13.6454    -0.5092     3.7640 C.ar    
  45 C45            8.2392     4.0678    -4.2692 C.3     
  46 C46            8.3776     3.2634    -5.5633 C.3     
  47 C47            8.0033     4.1465    -6.7553 C.3     
  48 N48            8.1362     3.3741    -7.9978 N.3     
  49 H49            1.2703     8.4928    -0.7280 H       
  50 H50           -0.2615     8.6559    -2.6432 H       
  51 H51            0.3943     7.7052    -4.8223 H       
  52 H52            2.5776     6.6091    -5.0726 H       
  53 H53            3.7303     8.3345    -0.1192 H       
  54 H54            3.2455     6.6369     0.1010 H       
  55 H55            4.3589     5.4081    -3.9232 H       
  56 H56            5.1682     6.9802    -3.7512 H       
  57 H57            4.5647     4.9454    -1.5707 H       
  58 H58            5.4867     9.5325    -0.1815 H       
  59 H59            5.3969     8.4940     1.2613 H       
  60 H60            7.8734     8.4212     1.3631 H       
  61 H61            7.9632     9.4598    -0.0797 H       
  62 H62           11.5961    12.7872     3.6378 H       
  63 H63           11.8181    10.7957     2.2112 H       
  64 H64            9.8148     9.7023     1.2962 H       
  65 H65            7.3533    12.6230     3.2572 H       
  66 H66            9.3717    13.6976     4.1612 H       
  67 H67            6.5051     3.7860    -1.0174 H       
  68 H68            9.0720     4.8983    -1.8549 H       
  69 H69            9.6436     2.8454    -3.1857 H       
  70 H70            7.9485     2.3217    -3.0414 H       
  71 H71           10.8362     2.9315    -1.3235 H       
  72 H72           10.6054     2.4839     1.4555 H       
  73 H73           10.1070     1.0017     0.6053 H       
  74 H74           12.7562     2.4474     0.1574 H       
  75 H75           10.8316    -0.7486    -0.1895 H       
  76 H76           11.0288    -2.2108    -2.1608 H       
  77 H77           12.6010    -1.6370    -3.9670 H       
  78 H78           13.9754     0.3994    -3.8022 H       
  79 H79           13.7721     1.8661    -1.8348 H       
  80 H80           11.9564    -1.7989     3.5311 H       
  81 H81           11.1076    -0.6173     1.5446 H       
  82 H82           14.3870     2.1009     1.7601 H       
  83 H83           15.2362     0.9188     3.7463 H       
  84 H84           14.0178    -1.0276     4.6352 H       
  85 H85            7.2090     4.4071    -4.1607 H       
  86 H86            8.9041     4.9308    -4.3050 H       
  87 H87            9.4077     2.9241    -5.6717 H       
  88 H88            7.7127     2.4004    -5.5275 H       
  89 H89            6.9732     4.4858    -6.6468 H       
  90 H90            8.6683     5.0095    -6.7911 H       
  91 H91            7.8944     3.9358    -8.8003 H       
  92 H92            9.0664     2.9940    -8.0895 H       
@<TRIPOS>BOND
   1    1    2 ar
   2    1    6 ar
   3    1   49 1
   4    2    3 ar
   5    2   50 1
   6    3    4 ar
   7    3   51 1
   8    4    5 ar
   9    4   52 1
  10    5    6 ar
  11    5    8 1
  12    6    7 1
  13    7   10 1
  14    7   53 1
  15    7   54 1
  16    8    9 1
  17    8   55 1
  18    8   56 1
  19    9   10 1
  20    9   23 1
  21    9   57 1
  22   10   11 am
  23   11   12 1
  24   11   13 2
  25   12   14 1
  26   12   58 1
  27   12   59 1
  28   14   15 1
  29   14   60 1
  30   14   61 1
  31   15   16 1
  32   15   17 2
  33   16   21 ar
  34   16   20 ar
  35   18   19 ar
  36   18   22 ar
  37   18   62 1
  38   19   20 ar
  39   19   63 1
  40   20   64 1
  41   21   22 ar
  42   21   65 1
  43   22   66 1
  44   23   24 am
  45   23   25 2
  46   24   26 1
  47   24   67 1
  48   26   27 1
  49   26   28 1
  50   26   68 1
  51   27   29 am
  52   27   30 2
  53   28   45 1
  54   28   69 1
  55   28   70 1
  56   29   31 1
  57   29   71 1
  58   31   32 1
  59   31   72 1
  60   31   73 1
  61   32   33 1
  62   32   34 1
  63   32   74 1
  64   33   42 ar
  65   33   41 ar
  66   34   35 ar
  67   34   39 ar
  68   35   36 ar
  69   35   75 1
  70   36   37 ar
  71   36   76 1
  72   37   38 ar
  73   37   77 1
  74   38   39 ar
  75   38   78 1
  76   39   79 1
  77   40   41 ar
  78   40   44 ar
  79   40   80 1
  80   41   81 1
  81   42   43 ar
  82   42   82 1
  83   43   44 ar
  84   43   83 1
  85   44   84 1
  86   45   46 1
  87   45   85 1
  88   45   86 1
  89   46   47 1
  90   46   87 1
  91   46   88 1
  92   47   48 1
  93   47   89 1
  94   47   90 1
  95   48   91 1
  96   48   92 1

#	End of record

