#	Name: ASD01420140
#	Creating user name:	WinNT
#	Creation time:	15. 06. 2019 19:20

#	Modifying user name:	WinNT
#	Modification time:	15. 06. 2019 19:20

#	Program:	/corina/corina34_cracker 3.40 0067  02.08.2006

@<TRIPOS>MOLECULE
ASD01420140
 107  107    0    0    0
SMALL
NO_CHARGES


@<TRIPOS>ATOM
   1 Cl1            0.0000     0.0000     0.0000 Cl      
   2 H2             0.0000     1.3700     0.0000 H       
   3 O3             8.0412    15.3851    11.1239 O.3     
   4 O4            21.1631    11.8619    15.8967 O.3     
   5 O5            10.0832    14.7495    13.0438 O.3     
   6 O6            18.9059    13.5544    15.3487 O.3     
   7 N7             8.3656    14.2910     8.5172 N.3     
   8 N8            21.5176     9.6229    14.1767 N.3     
   9 C9            21.4879     8.1802    13.9015 C.3     
  10 C10            8.6632    14.4177     7.0842 C.3     
  11 C11            6.8427    12.7171     6.8950 C.3     
  12 C12           23.4434     8.5806    12.3987 C.3     
  13 C13            7.4458    13.9764     6.2695 C.3     
  14 C14           22.8923     7.7038    13.5250 C.3     
  15 C15            8.9933    15.8758     6.7589 C.3     
  16 C16            9.8607    13.5329     6.7319 C.3     
  17 C17           21.0132     7.4326    15.1491 C.3     
  18 C18           20.5274     7.9016    12.7436 C.3     
  19 C19           23.4207    10.0466    12.8360 C.3     
  20 C20           24.8818     8.1640    12.0855 C.3     
  21 C21           22.5786     8.4079    11.1484 C.3     
  22 C22            6.1921    13.0737     8.2331 C.3     
  23 C23            5.7864    12.1355     5.9533 C.3     
  24 C24            7.9466    11.6827     7.1242 C.3     
  25 C25           20.1832    10.1166    14.5425 C.3     
  26 C26            9.5146    14.7070     9.3323 C.3     
  27 C27            9.1673    14.5614    10.8153 C.3     
  28 C28           20.2541    11.6193    14.8211 C.3     
  29 C29           18.8644    12.1335    15.2020 C.3     
  30 C30           10.3641    14.9946    11.6643 C.3     
  31 C31           14.0934    16.1217    16.7532 C.3     
  32 C32           15.3811    15.4348    16.3777 C.ar    
  33 C33           13.0203    15.7548    15.7607 C.ar    
  34 C34           17.7448    14.1738    15.6878 C.ar    
  35 C35           11.0507    15.0808    13.9388 C.ar    
  36 C36           13.6671    15.6759    18.1534 C.3     
  37 C37           14.3018    17.6374    16.7419 C.3     
  38 C38           16.5315    16.1789    16.1916 C.ar    
  39 C39           11.8298    15.2075    16.2023 C.ar    
  40 C40           15.4114    14.0608    16.2253 C.ar    
  41 C41           13.2255    15.9717    14.4107 C.ar    
  42 C42           10.8448    14.8699    15.2945 C.ar    
  43 C43           17.7130    15.5516    15.8469 C.ar    
  44 C44           12.2436    15.6358    13.4989 C.ar    
  45 C45           16.5906    13.4287    15.8815 C.ar    
  46 H46           23.5457     7.7760    14.3944 H       
  47 H47           22.8468     6.6677    13.1897 H       
  48 H48            6.7018    14.7730     6.2673 H       
  49 H49            7.7520    13.7625     5.2455 H       
  50 H50            7.5393    14.8155     8.7626 H       
  51 H51           22.1928     9.8402    14.8943 H       
  52 H52            9.9163    16.1608     7.2638 H       
  53 H53            9.1186    15.9885     5.6820 H       
  54 H54            8.1802    16.5171     7.0991 H       
  55 H55            9.7256    12.5458     7.1741 H       
  56 H56            9.9365    13.4385     5.6486 H       
  57 H57           10.7731    13.9840     7.1220 H       
  58 H58           20.0434     7.8219    15.4590 H       
  59 H59           20.9228     6.3700    14.9236 H       
  60 H60           21.7350     7.5732    15.9536 H       
  61 H61           20.3346     8.8269    12.2008 H       
  62 H62           20.9737     7.1709    12.0691 H       
  63 H63           19.5896     7.5084    13.1361 H       
  64 H64           23.6831    10.1149    13.8917 H       
  65 H65           24.1405    10.6131    12.2453 H       
  66 H66           22.4223    10.4561    12.6825 H       
  67 H67           24.8980     7.1196    11.7739 H       
  68 H68           25.2744     8.7886    11.2831 H       
  69 H69           25.4979     8.2870    12.9762 H       
  70 H70           21.7807     9.1505    11.1530 H       
  71 H71           23.1946     8.5421    10.2592 H       
  72 H72           22.1445     7.4082    11.1421 H       
  73 H73            5.5109    13.9131     8.0936 H       
  74 H74            5.6371    12.2137     8.6079 H       
  75 H75            6.9649    13.3483     8.9511 H       
  76 H76            8.6508    12.0610     7.8652 H       
  77 H77            7.5047    10.7535     7.4840 H       
  78 H78            8.4706    11.4968     6.1867 H       
  79 H79            6.2499    11.8814     5.0000 H       
  80 H80            5.3568    11.2383     6.3989 H       
  81 H81            5.0000    12.8724     5.7900 H       
  82 H82           19.4899     9.9315    13.7220 H       
  83 H83           19.8360     9.5974    15.4357 H       
  84 H84           10.3736    14.0787     9.0969 H       
  85 H85            9.7557    15.7478     9.1162 H       
  86 H86            8.9263    13.5206    11.0315 H       
  87 H87           20.6014    12.1385    13.9278 H       
  88 H88           18.5546    11.6799    16.1435 H       
  89 H89           10.5497    16.0583    11.5147 H       
  90 H90           11.2455    14.4267    11.3665 H       
  91 H91           18.1524    11.8696    14.4200 H       
  92 H92            8.1846    16.3265    10.9556 H       
  93 H93           20.9161    11.4294    16.7256 H       
  94 H94           14.6055    17.9550    15.7444 H       
  95 H95           13.3704    18.1342    17.0135 H       
  96 H96           14.4432    15.9413    18.8712 H       
  97 H97           12.7357    16.1728    18.4250 H       
  98 H98           13.5186    14.5961    18.1614 H       
  99 H99           15.0779    17.9028    17.4597 H       
 100 H100          11.6702    15.0431    17.2577 H       
 101 H101          16.5062    17.2514    16.3155 H       
 102 H102          14.1545    16.4034    14.0687 H       
 103 H103          14.5125    13.4814    16.3755 H       
 104 H104           9.9168    14.4383    15.6395 H       
 105 H105          18.6102    16.1338    15.6970 H       
 106 H106          12.4064    15.8007    12.4440 H       
 107 H107          16.6127    12.3560    15.7580 H       
@<TRIPOS>BOND
   1    1    2 1
   2    3   27 1
   3    3   92 1
   4    4   28 1
   5    4   93 1
   6    5   30 1
   7    5   35 1
   8    6   29 1
   9    6   34 1
  10    7   10 1
  11    7   26 1
  12    7   50 1
  13    8    9 1
  14    8   25 1
  15    8   51 1
  16    9   14 1
  17    9   17 1
  18    9   18 1
  19   10   13 1
  20   10   15 1
  21   10   16 1
  22   11   13 1
  23   11   22 1
  24   11   23 1
  25   11   24 1
  26   12   14 1
  27   12   19 1
  28   12   20 1
  29   12   21 1
  30   13   48 1
  31   13   49 1
  32   14   46 1
  33   14   47 1
  34   15   52 1
  35   15   53 1
  36   15   54 1
  37   16   55 1
  38   16   56 1
  39   16   57 1
  40   17   58 1
  41   17   59 1
  42   17   60 1
  43   18   61 1
  44   18   62 1
  45   18   63 1
  46   19   64 1
  47   19   65 1
  48   19   66 1
  49   20   67 1
  50   20   68 1
  51   20   69 1
  52   21   70 1
  53   21   71 1
  54   21   72 1
  55   22   73 1
  56   22   74 1
  57   22   75 1
  58   23   79 1
  59   23   80 1
  60   23   81 1
  61   24   76 1
  62   24   77 1
  63   24   78 1
  64   25   28 1
  65   25   82 1
  66   25   83 1
  67   26   27 1
  68   26   84 1
  69   26   85 1
  70   27   30 1
  71   27   86 1
  72   28   29 1
  73   28   87 1
  74   29   88 1
  75   29   91 1
  76   30   89 1
  77   30   90 1
  78   31   32 1
  79   31   33 1
  80   31   36 1
  81   31   37 1
  82   32   38 ar
  83   32   40 ar
  84   33   39 ar
  85   33   41 ar
  86   34   43 ar
  87   34   45 ar
  88   35   42 ar
  89   35   44 ar
  90   36   96 1
  91   36   97 1
  92   36   98 1
  93   37   94 1
  94   37   95 1
  95   37   99 1
  96   38   43 ar
  97   38  101 1
  98   39   42 ar
  99   39  100 1
 100   40   45 ar
 101   40  103 1
 102   41   44 ar
 103   41  102 1
 104   42  104 1
 105   43  105 1
 106   44  106 1
 107   45  107 1

#	End of record

