#	Name: ASD08070127
#	Creating user name:	WinNT
#	Creation time:	15. 06. 2019 21:14

#	Modifying user name:	WinNT
#	Modification time:	15. 06. 2019 21:14

#	Program:	/corina/corina34_cracker 3.40 0067  02.08.2006

@<TRIPOS>MOLECULE
ASD08070127
  45   45    0    0    0
SMALL
NO_CHARGES


@<TRIPOS>ATOM
   1 C1            -1.1631     1.5800    -0.9575 C.ar    
   2 C2            -1.0079     0.1893    -0.9270 C.ar    
   3 C3            -0.0969     2.3819    -1.2969 C.ar    
   4 C4             1.1324     1.8126    -1.6090 C.ar    
   5 C5             0.2319    -0.3788    -1.2422 C.ar    
   6 C6             1.2917     0.4319    -1.5807 C.ar    
   7 O7             2.1807     2.6077    -1.9430 O.3     
   8 C8             3.4152     1.9578    -2.2522 C.3     
   9 C9            -2.1430    -0.6717    -0.5649 C.2     
  10 C10           -1.9908    -2.0126    -0.5362 C.2     
  11 C11           -3.1202    -2.8692    -0.1759 C.2     
  12 N12           -2.9682    -4.2081    -0.1473 N.am    
  13 C13           -4.0995    -5.0662     0.2136 C.3     
  14 C14           -3.9037    -6.4535    -0.4011 C.3     
  15 C15           -5.0939    -7.3442    -0.0392 C.3     
  16 C16           -3.8049    -6.3278    -1.9227 C.3     
  17 C17           -4.1802    -5.1899     1.7365 C.3     
  18 C18           -2.8387    -5.6861     2.2797 C.3     
  19 C19           -4.5017    -3.8225     2.3429 C.3     
  20 O20           -4.1973    -2.3730     0.0981 O.2     
  21 H21           -2.1189     2.0230    -0.7195 H       
  22 H22           -0.2157     3.4551    -1.3210 H       
  23 H23            0.3568    -1.4514    -1.2197 H       
  24 H24            2.2486    -0.0055    -1.8246 H       
  25 H25            3.7483     1.3810    -1.3894 H       
  26 H26            3.2715     1.2903    -3.1019 H       
  27 H27            4.1674     2.7062    -2.5013 H       
  28 H28           -3.0988    -0.2314    -0.3217 H       
  29 H29           -1.0351    -2.4529    -0.7794 H       
  30 H30           -2.1098    -4.6035    -0.3657 H       
  31 H31           -5.0230    -4.6281    -0.1648 H       
  32 H32           -2.9868    -6.8969    -0.0128 H       
  33 H33           -6.0193    -6.8560    -0.3449 H       
  34 H34           -5.0011    -8.3011    -0.5529 H       
  35 H35           -5.1094    -7.5101     1.0380 H       
  36 H36           -2.9569    -5.6932    -2.1805 H       
  37 H37           -3.6654    -7.3161    -2.3606 H       
  38 H38           -4.7218    -5.8844    -2.3110 H       
  39 H39           -4.9645    -5.8987     2.0024 H       
  40 H40           -2.0545    -4.9773     2.0138 H       
  41 H41           -2.8963    -5.7742     3.3646 H       
  42 H42           -2.6097    -6.6603     1.8477 H       
  43 H43           -5.3953    -3.4160     1.8693 H       
  44 H44           -4.6754    -3.9315     3.4134 H       
  45 H45           -3.6632    -3.1457     2.1780 H       
@<TRIPOS>BOND
   1    1    2 ar
   2    1    3 ar
   3    1   21 1
   4    2    9 1
   5    2    5 ar
   6    3    4 ar
   7    3   22 1
   8    4    6 ar
   9    4    7 1
  10    5    6 ar
  11    5   23 1
  12    6   24 1
  13    7    8 1
  14    8   25 1
  15    8   26 1
  16    8   27 1
  17    9   10 2
  18    9   28 1
  19   10   11 1
  20   10   29 1
  21   11   12 am
  22   11   20 2
  23   12   13 1
  24   12   30 1
  25   13   14 1
  26   13   17 1
  27   13   31 1
  28   14   15 1
  29   14   16 1
  30   14   32 1
  31   15   33 1
  32   15   34 1
  33   15   35 1
  34   16   36 1
  35   16   37 1
  36   16   38 1
  37   17   18 1
  38   17   19 1
  39   17   39 1
  40   18   40 1
  41   18   41 1
  42   18   42 1
  43   19   43 1
  44   19   44 1
  45   19   45 1

#	End of record

