#	Name: ASD01870212
#	Creating user name:	WinNT
#	Creation time:	15. 06. 2019 19:38

#	Modifying user name:	WinNT
#	Modification time:	15. 06. 2019 19:38

#	Program:	/corina/corina34_cracker 3.40 0067  02.08.2006

@<TRIPOS>MOLECULE
ASD01870212
  51   55    0    0    0
SMALL
NO_CHARGES


@<TRIPOS>ATOM
   1 C1            -0.0168     1.3890     0.0097 C.ar    
   2 C2             0.0021    -0.0041     0.0020 C.ar    
   3 C3             1.1787    -0.6895    -0.0129 C.ar    
   4 C4             2.3941     0.0134    -0.0207 C.ar    
   5 C5             2.3756     1.4326    -0.0129 C.ar    
   6 C6             1.1407     2.1050     0.0025 C.ar    
   7 C7             3.6272    -0.6638    -0.0365 C.ar    
   8 C8             4.7900     0.0349    -0.0443 C.ar    
   9 C9             4.7883     1.4437    -0.0368 C.ar    
  10 C10            3.5863     2.1337    -0.0212 C.ar    
  11 C11            5.8879     2.4282    -0.0429 C.2     
  12 N12            5.3953     3.6786    -0.0316 N.am    
  13 C13            3.9299     3.6020    -0.0172 C.3     
  14 C14            6.1520     4.8550    -0.0334 C.ar    
  15 C15            6.5206     5.4540    -1.2312 C.ar    
  16 N16            7.2332     6.5626    -1.2368 N.ar    
  17 C17            7.6224     7.1442    -0.1189 C.ar    
  18 C18            7.2950     6.6078     1.1123 C.ar    
  19 C19            6.5420     5.4461     1.1657 C.ar    
  20 C20            3.6564    -2.1705    -0.0443 C.3     
  21 C21            3.5281    -2.6681    -1.4609 C.ar    
  22 C22            4.6540    -2.8749    -2.2324 C.ar    
  23 N23            4.5526    -3.3104    -3.4740 N.ar    
  24 C24            3.3783    -3.5647    -4.0264 C.ar    
  25 C25            2.2034    -3.3792    -3.3087 C.ar    
  26 C26            2.2765    -2.9289    -2.0023 C.ar    
  27 O27            7.0708     2.1479    -0.0558 O.2     
  28 C28            6.1644     4.8308     2.4885 C.3     
  29 O29            3.3203    -4.0107    -5.3065 O.3     
  30 C30            4.5631    -4.1806    -5.9912 C.3     
  31 H31           -0.9637     1.9083     0.0170 H       
  32 H32           -0.9306    -0.5486     0.0083 H       
  33 H33            1.1770    -1.7695    -0.0183 H       
  34 H34            1.1108     3.1846     0.0082 H       
  35 H35            5.7302    -0.4964    -0.0561 H       
  36 H36            3.5205     4.0852    -0.9043 H       
  37 H37            3.5386     4.0762     0.8829 H       
  38 H38            6.2207     5.0066    -2.1673 H       
  39 H39            8.2054     8.0522    -0.1660 H       
  40 H40            7.6186     7.0912     2.0222 H       
  41 H41            4.5990    -2.5179     0.3788 H       
  42 H42            2.8278    -2.5531     0.5517 H       
  43 H43            5.6302    -2.6775    -1.8147 H       
  44 H44            1.2459    -3.5875    -3.7629 H       
  45 H45            1.3801    -2.7759    -1.4198 H       
  46 H46            5.2113     5.2418     2.8215 H       
  47 H47            6.0741     3.7506     2.3743 H       
  48 H48            6.9345     5.0551     3.2266 H       
  49 H49            4.3744    -4.5407    -7.0025 H       
  50 H50            5.0861    -3.2254    -6.0372 H       
  51 H51            5.1766    -4.9054    -5.4560 H       
@<TRIPOS>BOND
   1    1    2 ar
   2    1    6 ar
   3    1   31 1
   4    2    3 ar
   5    2   32 1
   6    3    4 ar
   7    3   33 1
   8    4    5 ar
   9    4    7 ar
  10    5    6 ar
  11    5   10 ar
  12    6   34 1
  13    7    8 ar
  14    7   20 1
  15    8    9 ar
  16    8   35 1
  17    9   10 ar
  18    9   11 1
  19   10   13 1
  20   11   12 am
  21   11   27 2
  22   12   13 1
  23   12   14 1
  24   13   36 1
  25   13   37 1
  26   14   15 ar
  27   14   19 ar
  28   15   16 ar
  29   15   38 1
  30   16   17 ar
  31   17   18 ar
  32   17   39 1
  33   18   19 ar
  34   18   40 1
  35   19   28 1
  36   20   21 1
  37   20   41 1
  38   20   42 1
  39   21   22 ar
  40   21   26 ar
  41   22   23 ar
  42   22   43 1
  43   23   24 ar
  44   24   25 ar
  45   24   29 1
  46   25   26 ar
  47   25   44 1
  48   26   45 1
  49   28   46 1
  50   28   47 1
  51   28   48 1
  52   29   30 1
  53   30   49 1
  54   30   50 1
  55   30   51 1

#	End of record

