#	Name: ASD05430587
#	Creating user name:	WinNT
#	Creation time:	15. 06. 2019 21:00

#	Modifying user name:	WinNT
#	Modification time:	15. 06. 2019 21:00

#	Program:	/corina/corina34_cracker 3.40 0067  02.08.2006

@<TRIPOS>MOLECULE
ASD05430587
  42   42    0    0    0
SMALL
NO_CHARGES


@<TRIPOS>ATOM
   1 C1            -0.3161     1.2174     0.6859 C.ar    
   2 C2            -0.5303    -0.0103     0.0884 C.ar    
   3 C3             0.8569     1.9083     0.4447 C.ar    
   4 C4             1.8152     1.3714    -0.3941 C.ar    
   5 C5             1.6011     0.1431    -0.9915 C.ar    
   6 C6             0.4283    -0.5474    -0.7507 C.ar    
   7 C7             1.0904     3.2472     1.0960 C.3     
   8 C8             0.1951    -1.8865    -1.4015 C.3     
   9 C9             0.2238    -1.7260    -2.9228 C.3     
  10 C10            1.2930    -2.8611    -0.9707 C.3     
  11 C11            1.5156     3.0394     2.5509 C.3     
  12 C12            2.1934     3.9947     0.3440 C.3     
  13 Si13          -1.6146     1.9467     1.8135 Si      
  14 C14           -1.3612     1.3101     3.5459 C.3     
  15 C15           -1.4704     3.8041     1.8070 C.3     
  16 C16           -3.3074     1.4532     1.2119 C.3     
  17 H17           -1.4465    -0.5502     0.2771 H       
  18 H18            2.7312     1.9115    -0.5830 H       
  19 H19            2.3496    -0.2762    -1.6475 H       
  20 H20            0.1704     3.8310     1.0662 H       
  21 H21           -0.7762    -2.2750    -1.0955 H       
  22 H22            1.1951    -1.3375    -3.2289 H       
  23 H23            0.0551    -2.6945    -3.3936 H       
  24 H24           -0.5584    -1.0317    -3.2298 H       
  25 H25            1.2725    -2.9754     0.1131 H       
  26 H26            1.1243    -3.8296    -1.4414 H       
  27 H27            2.2643    -2.4726    -1.2768 H       
  28 H28            2.4356     2.4555     2.5807 H       
  29 H29            1.6845     4.0077     3.0219 H       
  30 H30            0.7298     2.5068     3.0866 H       
  31 H31            1.8904     4.1427    -0.6925 H       
  32 H32            2.3622     4.9630     0.8150 H       
  33 H33            3.1134     3.4108     0.3738 H       
  34 H34           -0.3708     1.5989     3.8978 H       
  35 H35           -2.1190     1.7357     4.2038 H       
  36 H36           -1.4456     0.2234     3.5496 H       
  37 H37           -1.4134     4.1605     0.7785 H       
  38 H38           -2.3437     4.2380     2.2941 H       
  39 H39           -0.5698     4.1004     2.3447 H       
  40 H40           -3.3918     0.3665     1.2157 H       
  41 H41           -4.0651     1.8787     1.8699 H       
  42 H42           -3.4557     1.8256     0.1983 H       
@<TRIPOS>BOND
   1    1    2 ar
   2    1    3 ar
   3    1   13 1
   4    2    6 ar
   5    2   17 1
   6    3    4 ar
   7    3    7 1
   8    4    5 ar
   9    4   18 1
  10    5    6 ar
  11    5   19 1
  12    6    8 1
  13    7   11 1
  14    7   12 1
  15    7   20 1
  16    8    9 1
  17    8   10 1
  18    8   21 1
  19    9   22 1
  20    9   23 1
  21    9   24 1
  22   10   25 1
  23   10   26 1
  24   10   27 1
  25   11   28 1
  26   11   29 1
  27   11   30 1
  28   12   31 1
  29   12   32 1
  30   12   33 1
  31   13   14 1
  32   13   15 1
  33   13   16 1
  34   14   34 1
  35   14   35 1
  36   14   36 1
  37   15   37 1
  38   15   38 1
  39   15   39 1
  40   16   40 1
  41   16   41 1
  42   16   42 1

#	End of record

