#	Name: ASD04881281
#	Creating user name:	WinNT
#	Creation time:	15. 06. 2019 20:53

#	Modifying user name:	WinNT
#	Modification time:	15. 06. 2019 20:53

#	Program:	/corina/corina34_cracker 3.40 0067  02.08.2006

@<TRIPOS>MOLECULE
ASD04881281
  82   87    0    0    0
SMALL
NO_CHARGES


@<TRIPOS>ATOM
   1 C1             0.9124    -0.4967    -1.0702 C.ar    
   2 C2            -0.0262    -0.2532    -0.0846 C.ar    
   3 C3             0.2108     0.7169     0.8709 C.ar    
   4 C4             1.3867     1.4435     0.8414 C.ar    
   5 C5             2.3254     1.1994    -0.1432 C.ar    
   6 C6             2.0877     0.2300    -1.0999 C.ar    
   7 C7             3.6067     1.9920    -0.1759 C.3     
   8 C8             3.6773     2.7972    -1.4764 C.3     
   9 C9             4.9505     3.6463    -1.4765 C.3     
  10 N10            4.9372     4.5509    -0.3198 N.3     
  11 C11            4.9174     3.7995     0.9417 C.3     
  12 C12            3.6432     2.9550     1.0140 C.3     
  13 C13            6.0171     5.4291    -0.3607 C.ar    
  14 C14            7.3158     4.9330    -0.3558 C.ar    
  15 C15            8.3868     5.7980    -0.3956 C.ar    
  16 C16            8.1706     7.1781    -0.4416 C.ar    
  17 C17            6.8659     7.6794    -0.4471 C.ar    
  18 C18            5.7939     6.8077    -0.4123 C.ar    
  19 N19            4.4843     7.3061    -0.4234 N.am    
  20 C20            4.2016     8.4717     0.1914 C.2     
  21 C21            2.8078     8.9447     0.2691 C.2     
  22 O22            5.0966     9.1332     0.6820 O.2     
  23 C23            2.3757    10.0949     0.8547 C.2     
  24 O24            1.0427    10.1365     0.6992 O.3     
  25 C25            0.6638     9.0366     0.0331 C.2     
  26 N26            1.7115     8.3167    -0.2360 N.2     
  27 C27            9.3180     8.1044    -0.4838 C.2     
  28 O28            9.1290     9.3050    -0.5238 O.2     
  29 C29           -0.7528     8.6924    -0.3485 C.3     
  30 C30           -1.7707     8.5342     0.7828 C.3     
  31 C31           -1.8238     9.7626    -0.1278 C.3     
  32 N32           10.5757     7.6201    -0.4780 N.am    
  33 C33           11.7151     8.5400    -0.5199 C.3     
  34 C34           13.0184     7.7387    -0.5036 C.3     
  35 C35           14.2084     8.6994    -0.5473 C.3     
  36 C36            3.1107    -0.0355    -2.1741 C.3     
  37 N37           15.4563     7.9321    -0.5317 N.am    
  38 O38            4.7215     1.1008    -0.1049 O.3     
  39 C39           16.1510     7.4565    -1.7337 C.3     
  40 C40           17.1262     6.3643    -1.2411 C.3     
  41 C41           17.3525     6.7839     0.2298 C.3     
  42 C42           16.1151     7.5783     0.5853 C.2     
  43 O43           15.7668     7.8537     1.7139 O.2     
  44 H44            0.7291    -1.2578    -1.8141 H       
  45 H45           -0.9448    -0.8207    -0.0616 H       
  46 H46           -0.5227     0.9076     1.6403 H       
  47 H47            1.5716     2.2020     1.5876 H       
  48 H48            3.6948     2.1150    -2.3263 H       
  49 H49            2.8059     3.4480    -1.5492 H       
  50 H50            5.8219     2.9942    -1.4176 H       
  51 H51            4.9966     4.2316    -2.3948 H       
  52 H52            5.7890     3.1467     0.9893 H       
  53 H53            4.9394     4.4962     1.7797 H       
  54 H54            2.7713     3.6083     0.9803 H       
  55 H55            3.6363     2.3855     1.9434 H       
  56 H56            7.4852     3.8670    -0.3203 H       
  57 H57            9.3945     5.4095    -0.3910 H       
  58 H58            6.6958     8.7453    -0.4822 H       
  59 H59            3.7812     6.8122    -0.8735 H       
  60 H60            2.9884    10.8334     1.3503 H       
  61 H61           -0.8611     8.0432    -1.2173 H       
  62 H62           -2.5488     7.7812     0.6581 H       
  63 H63           -1.4156     8.6791     1.8031 H       
  64 H64           -1.5037    10.7156     0.2934 H       
  65 H65           -2.6369     9.8176    -0.8517 H       
  66 H66           10.7265     6.6624    -0.4461 H       
  67 H67           11.6669     9.1368    -1.4307 H       
  68 H68           11.6825     9.1985     0.3481 H       
  69 H69           13.0666     7.1419     0.4073 H       
  70 H70           13.0510     7.0802    -1.3716 H       
  71 H71           14.1602     9.2962    -1.4581 H       
  72 H72           14.1758     9.3579     0.3207 H       
  73 H73            2.8690     0.5528    -3.0593 H       
  74 H74            4.0997     0.2440    -1.8110 H       
  75 H75            3.1033    -1.0952    -2.4290 H       
  76 H76            4.7418     0.5594     0.6960 H       
  77 H77           15.4365     7.0335    -2.4399 H       
  78 H78           16.7032     8.2734    -2.1984 H       
  79 H79           16.6677     5.3771    -1.2990 H       
  80 H80           18.0598     6.3927    -1.8030 H       
  81 H81           17.4412     5.9047     0.8680 H       
  82 H82           18.2407     7.4099     0.3156 H       
@<TRIPOS>BOND
   1    1    2 ar
   2    1    6 ar
   3    1   44 1
   4    2    3 ar
   5    2   45 1
   6    3    4 ar
   7    3   46 1
   8    4    5 ar
   9    4   47 1
  10    5    6 ar
  11    5    7 1
  12    6   36 1
  13    7    8 1
  14    7   12 1
  15    7   38 1
  16    8    9 1
  17    8   48 1
  18    8   49 1
  19    9   10 1
  20    9   50 1
  21    9   51 1
  22   10   11 1
  23   10   13 1
  24   11   12 1
  25   11   52 1
  26   11   53 1
  27   12   54 1
  28   12   55 1
  29   13   14 ar
  30   13   18 ar
  31   14   15 ar
  32   14   56 1
  33   15   16 ar
  34   15   57 1
  35   16   17 ar
  36   16   27 1
  37   17   18 ar
  38   17   58 1
  39   18   19 1
  40   19   20 am
  41   19   59 1
  42   20   21 1
  43   20   22 2
  44   21   23 2
  45   21   26 1
  46   23   24 1
  47   23   60 1
  48   24   25 1
  49   25   26 2
  50   25   29 1
  51   27   28 2
  52   27   32 am
  53   29   30 1
  54   29   31 1
  55   29   61 1
  56   30   31 1
  57   30   62 1
  58   30   63 1
  59   31   64 1
  60   31   65 1
  61   32   33 1
  62   32   66 1
  63   33   34 1
  64   33   67 1
  65   33   68 1
  66   34   35 1
  67   34   69 1
  68   34   70 1
  69   35   37 1
  70   35   71 1
  71   35   72 1
  72   36   73 1
  73   36   74 1
  74   36   75 1
  75   37   39 1
  76   37   42 am
  77   38   76 1
  78   39   40 1
  79   39   77 1
  80   39   78 1
  81   40   41 1
  82   40   79 1
  83   40   80 1
  84   41   42 1
  85   41   81 1
  86   41   82 1
  87   42   43 2

#	End of record

