#	Name: ASD05842002
#	Creating user name:	WinNT
#	Creation time:	15. 06. 2019 21:03

#	Modifying user name:	WinNT
#	Modification time:	15. 06. 2019 21:03

#	Program:	/corina/corina34_cracker 3.40 0067  02.08.2006

@<TRIPOS>MOLECULE
ASD05842002
  75   77    0    0    0
SMALL
NO_CHARGES


@<TRIPOS>ATOM
   1 C1             0.0509     1.3792     0.1414 C.2     
   2 C2             0.0948    -0.0986     0.1552 C.ar    
   3 C3             1.0877    -0.7770    -0.5533 C.ar    
   4 C4             1.1232    -2.1560    -0.5359 C.ar    
   5 C5             0.1771    -2.8664     0.1815 C.ar    
   6 C6            -0.8098    -2.2001     0.8859 C.ar    
   7 C7            -0.8531    -0.8212     0.8815 C.ar    
   8 O8             1.0848     2.0176     0.1103 O.2     
   9 N9            -1.1355     2.0183     0.1576 N.am    
  10 C10           -1.1794     3.4788     0.2642 C.3     
  11 C11           -1.1571     4.0934    -1.1367 C.3     
  12 C12           -1.0771     5.6171    -1.0240 C.3     
  13 C13           -0.9292     6.2247    -2.4204 C.3     
  14 C14           -2.4143     3.7095    -1.8737 C.ar    
  15 C15           -2.3322     2.9945    -3.0541 C.ar    
  16 C16           -3.4857     2.6416    -3.7305 C.ar    
  17 C17           -4.7227     3.0050    -3.2247 C.ar    
  18 C18           -4.8030     3.7203    -2.0438 C.ar    
  19 C19           -3.6491     4.0676    -1.3662 C.ar    
  20 Cl20          -6.1716     2.5633    -4.0729 Cl      
  21 Cl21          -3.3832     1.7442    -5.2130 Cl      
  22 N22           -0.8524     7.6877    -2.3121 N.3     
  23 C23           -0.4746     8.2913    -3.5964 C.3     
  24 C24           -0.2626     9.7957    -3.4118 C.3     
  25 C25           -1.5559    10.4281    -2.8901 C.3     
  26 C26           -1.9534     9.7487    -1.5768 C.3     
  27 C27           -2.1163     8.2457    -1.8146 C.3     
  28 C28           -1.3355    11.8994    -2.6495 C.ar    
  29 C29           -0.7982    12.3309    -1.4512 C.ar    
  30 C30           -0.5961    13.6804    -1.2304 C.ar    
  31 C31           -0.9310    14.5985    -2.2081 C.ar    
  32 C32           -1.4675    14.1669    -3.4068 C.ar    
  33 C33           -1.6655    12.8170    -3.6292 C.ar    
  34 N34           -2.6226    10.2467    -3.8777 N.am    
  35 C35           -3.8309    10.8085    -3.6754 C.2     
  36 O36           -4.0643    11.3866    -2.6351 O.2     
  37 C37           -4.8919    10.7183    -4.7418 C.3     
  38 C38           -2.3813     1.2526     0.0685 C.3     
  39 H39            1.8263    -0.2237    -1.1142 H       
  40 H40            1.8910    -2.6822    -1.0837 H       
  41 H41            0.2090    -3.9459     0.1913 H       
  42 H42           -1.5453    -2.7605     1.4439 H       
  43 H43           -1.6213    -0.3020     1.4354 H       
  44 H44           -2.0929     3.7783     0.7779 H       
  45 H45           -0.3143     3.8280     0.8280 H       
  46 H46           -0.2889     3.7233    -1.6821 H       
  47 H47           -1.9868     5.9952    -0.5577 H       
  48 H48           -0.2156     5.8916    -0.4152 H       
  49 H49           -0.0195     5.8466    -2.8867 H       
  50 H50           -1.7907     5.9502    -3.0291 H       
  51 H51           -1.3672     2.7117    -3.4481 H       
  52 H52           -5.7673     4.0039    -1.6488 H       
  53 H53           -3.7123     4.6226    -0.4419 H       
  54 H54            0.4487     7.8357    -3.9542 H       
  55 H55           -1.2683     8.1230    -4.3243 H       
  56 H56            0.5403     9.9647    -2.6943 H       
  57 H57            0.0025    10.2459    -4.3684 H       
  58 H58           -1.1770     9.9170    -0.8304 H       
  59 H59           -2.8962    10.1654    -1.2223 H       
  60 H60           -2.9023     8.0776    -2.5508 H       
  61 H61           -2.3854     7.7569    -0.8782 H       
  62 H62           -0.5366    11.6136    -0.6873 H       
  63 H63           -0.1770    14.0176    -0.2939 H       
  64 H64           -0.7738    15.6529    -2.0354 H       
  65 H65           -1.7294    14.8842    -4.1705 H       
  66 H66           -2.0812    12.4796    -4.5672 H       
  67 H67           -2.4594     9.7222    -4.6772 H       
  68 H68           -4.5016    10.1664    -5.5969 H       
  69 H69           -5.7646    10.2010    -4.3432 H       
  70 H70           -5.1768    11.7222    -5.0566 H       
  71 H71           -2.6719     0.9146     1.0632 H       
  72 H72           -3.1675     1.8846    -0.3445 H       
  73 H73           -2.2315     0.3890    -0.5794 H       
  74 H74            6.8910    20.6529     6.4439 H       
  75 Cl75           6.8910    22.0229     6.4439 Cl      
@<TRIPOS>BOND
   1    1    2 1
   2    1    8 2
   3    1    9 am
   4    2    3 ar
   5    2    7 ar
   6    3    4 ar
   7    3   39 1
   8    4    5 ar
   9    4   40 1
  10    5    6 ar
  11    5   41 1
  12    6    7 ar
  13    6   42 1
  14    7   43 1
  15    9   10 1
  16    9   38 1
  17   10   11 1
  18   10   44 1
  19   10   45 1
  20   11   12 1
  21   11   14 1
  22   11   46 1
  23   12   13 1
  24   12   47 1
  25   12   48 1
  26   13   22 1
  27   13   49 1
  28   13   50 1
  29   14   15 ar
  30   14   19 ar
  31   15   16 ar
  32   15   51 1
  33   16   17 ar
  34   16   21 1
  35   17   18 ar
  36   17   20 1
  37   18   19 ar
  38   18   52 1
  39   19   53 1
  40   22   23 1
  41   22   27 1
  42   23   24 1
  43   23   54 1
  44   23   55 1
  45   24   25 1
  46   24   56 1
  47   24   57 1
  48   25   26 1
  49   25   28 1
  50   25   34 1
  51   26   27 1
  52   26   58 1
  53   26   59 1
  54   27   60 1
  55   27   61 1
  56   28   29 ar
  57   28   33 ar
  58   29   30 ar
  59   29   62 1
  60   30   31 ar
  61   30   63 1
  62   31   32 ar
  63   31   64 1
  64   32   33 ar
  65   32   65 1
  66   33   66 1
  67   34   35 am
  68   34   67 1
  69   35   36 2
  70   35   37 1
  71   37   68 1
  72   37   69 1
  73   37   70 1
  74   38   71 1
  75   38   72 1
  76   38   73 1
  77   74   75 1

#	End of record

