#	Name: ASD03451013
#	Creating user name:	WinNT
#	Creation time:	15. 06. 2019 20:42

#	Modifying user name:	WinNT
#	Modification time:	15. 06. 2019 20:42

#	Program:	/corina/corina34_cracker 3.40 0067  02.08.2006

@<TRIPOS>MOLECULE
ASD03451013
  39   42    0    0    0
SMALL
NO_CHARGES


@<TRIPOS>ATOM
   1 N1             0.0213     1.5898     0.0544 N.ar    
   2 C2            -0.0180     0.2725    -0.0173 C.ar    
   3 N3             1.0725    -0.4572    -0.0628 N.ar    
   4 C4             2.2853     0.1073    -0.0384 C.ar    
   5 C5             2.3712     1.5022     0.0293 C.ar    
   6 C6             1.1705     2.2349     0.0797 C.ar    
   7 C7             3.4663    -0.7706    -0.0774 C.2     
   8 N8             4.5341    -0.5722     0.6170 N.2     
   9 C9             4.6593     0.5793     1.5099 C.3     
  10 C10            4.5964     1.8411     0.6959 C.2     
  11 N11            3.5421     2.1858     0.0430 N.2     
  12 C12            3.4250    -1.9536    -0.9679 C.ar    
  13 C13            4.5197    -2.8151    -1.0391 C.ar    
  14 C14            4.4750    -3.9157    -1.8701 C.ar    
  15 C15            3.3474    -4.1655    -2.6318 C.ar    
  16 C16            2.2584    -3.3148    -2.5655 C.ar    
  17 C17            2.2889    -2.2139    -1.7343 C.ar    
  18 C18            3.5312     0.5673     2.5090 C.2     
  19 S19            2.7468     1.9961     3.1699 S.3     
  20 C20            1.6749     0.9952     4.1409 C.2     
  21 C21            1.9499    -0.2924     3.9274 C.2     
  22 C22            2.9709    -0.5287     3.0231 C.2     
  23 N23            5.6960     2.6500     0.6476 N.pl3   
  24 C24            5.6621     3.8860    -0.1382 C.3     
  25 H25           -0.9783    -0.2212    -0.0390 H       
  26 H26            1.1906     3.3131     0.1376 H       
  27 H27            5.6133     0.5314     2.0349 H       
  28 H28            5.4006    -2.6209    -0.4452 H       
  29 H29            5.3221    -4.5832    -1.9263 H       
  30 H30            3.3172    -5.0281    -3.2810 H       
  31 H31            1.3811    -3.5149    -3.1628 H       
  32 H32            1.4382    -1.5505    -1.6834 H       
  33 H33            0.9112     1.3664     4.8083 H       
  34 H34            1.4138    -1.0903     4.4198 H       
  35 H35            3.2941    -1.5248     2.7590 H       
  36 H36            6.4993     2.4061     1.1335 H       
  37 H37            5.4650     3.6469    -1.1832 H       
  38 H38            4.8735     4.5360     0.2408 H       
  39 H39            6.6227     4.3947    -0.0569 H       
@<TRIPOS>BOND
   1    1    2 ar
   2    1    6 ar
   3    2    3 ar
   4    2   25 1
   5    3    4 ar
   6    4    5 ar
   7    4    7 1
   8    5    6 ar
   9    5   11 1
  10    6   26 1
  11    7    8 2
  12    7   12 1
  13    8    9 1
  14    9   10 1
  15    9   18 1
  16    9   27 1
  17   10   11 2
  18   10   23 1
  19   12   13 ar
  20   12   17 ar
  21   13   14 ar
  22   13   28 1
  23   14   15 ar
  24   14   29 1
  25   15   16 ar
  26   15   30 1
  27   16   17 ar
  28   16   31 1
  29   17   32 1
  30   18   19 1
  31   18   22 2
  32   19   20 1
  33   20   21 2
  34   20   33 1
  35   21   22 1
  36   21   34 1
  37   22   35 1
  38   23   24 1
  39   23   36 1
  40   24   37 1
  41   24   38 1
  42   24   39 1

#	End of record

