#	Name: ASD01028792
#	Creating user name:	WinNT
#	Creation time:	15. 06. 2019 18:58

#	Modifying user name:	WinNT
#	Modification time:	15. 06. 2019 18:58

#	Program:	/corina/corina34_cracker 3.40 0067  02.08.2006

@<TRIPOS>MOLECULE
ASD01028792
  26   27    0    0    0
SMALL
NO_CHARGES


@<TRIPOS>ATOM
   1 C1            -0.0184     1.5028     0.0103 C.2     
   2 C2             0.0021    -0.0041     0.0020 C.3     
   3 O3             1.0236     2.1234     0.0037 O.2     
   4 N4            -1.1946     2.1607     0.0195 N.am    
   5 N5            -1.2131     3.5266     0.0270 N.3     
   6 N6             4.8719    -1.8233     2.1405 N.ar    
   7 C7             5.0003    -2.0561     3.4241 C.ar    
   8 C8             3.9442    -1.8661     4.3130 C.ar    
   9 C9             2.7363    -1.4257     3.8522 C.ar    
  10 C10            2.6022    -1.1763     2.4732 C.ar    
  11 C11            1.3915    -0.7222     1.9266 C.ar    
  12 C12            1.3021    -0.4920     0.5875 C.ar    
  13 C13            2.3966    -0.7022    -0.2486 C.ar    
  14 C14            3.5851    -1.1424     0.2476 C.ar    
  15 C15            3.7168    -1.3909     1.6248 C.ar    
  16 F16           -1.0647    -0.4891     0.7662 F       
  17 F17           -0.1191    -0.4649    -1.3134 F       
  18 H18           -2.0280     1.6644     0.0207 H       
  19 H19           -2.1599     3.8753     0.0334 H       
  20 H20           -0.6882     3.8910     0.8078 H       
  21 H21            5.9498    -2.4047     3.8027 H       
  22 H22            4.0807    -2.0672     5.3653 H       
  23 H23            1.9069    -1.2734     4.5270 H       
  24 H24            0.5361    -0.5560     2.5646 H       
  25 H25            2.3002    -0.5131    -1.3075 H       
  26 H26            4.4236    -1.3006    -0.4144 H       
@<TRIPOS>BOND
   1    1    2 1
   2    1    3 2
   3    1    4 am
   4    2   12 1
   5    2   16 1
   6    2   17 1
   7    4    5 1
   8    4   18 1
   9    5   19 1
  10    5   20 1
  11    6    7 ar
  12    6   15 ar
  13    7    8 ar
  14    7   21 1
  15    8    9 ar
  16    8   22 1
  17    9   10 ar
  18    9   23 1
  19   10   11 ar
  20   10   15 ar
  21   11   12 ar
  22   11   24 1
  23   12   13 ar
  24   13   14 ar
  25   13   25 1
  26   14   15 ar
  27   14   26 1

#	End of record

