#	Name: ASD01814595
#	Creating user name:	WinNT
#	Creation time:	15. 06. 2019 19:32

#	Modifying user name:	WinNT
#	Modification time:	15. 06. 2019 19:32

#	Program:	/corina/corina34_cracker 3.40 0067  02.08.2006

@<TRIPOS>MOLECULE
ASD01814595
  56   60    0    0    0
SMALL
NO_CHARGES


@<TRIPOS>ATOM
   1 C1            -0.1675     1.1744     0.4132 C.2     
   2 C2             0.0259    -0.2093     0.5225 C.2     
   3 C3             1.2620    -0.7354     0.2852 C.2     
   4 C4             2.3206     0.1193    -0.0648 C.2     
   5 N5             2.1035     1.4668    -0.1639 N.am    
   6 C6             0.8637     1.9811     0.0752 C.2     
   7 C7             3.5920    -0.4188    -0.3091 C.2     
   8 C8             4.6272     0.4027    -0.6494 C.2     
   9 C9             4.4002     1.7878    -0.7509 C.2     
  10 C10            3.1106     2.2985    -0.4987 C.2     
  11 O11            2.9048     3.4974    -0.5847 O.2     
  12 C12            5.4944     2.6910    -1.1139 C.2     
  13 O13            5.2703     4.0177    -1.2096 O.3     
  14 O14            6.6054     2.2447    -1.3293 O.2     
  15 C15            3.8155    -1.9048    -0.1954 C.3     
  16 N16            3.7399    -2.5148    -1.5296 N.3     
  17 C17            4.0421    -3.9484    -1.4699 C.3     
  18 C18            3.8644    -4.5818    -2.8249 C.ar    
  19 C19            3.1482    -3.9644    -3.8282 C.ar    
  20 C20            2.5067    -2.6154    -3.6273 C.3     
  21 C21            2.4159    -2.2981    -2.1344 C.3     
  22 C22            4.4427    -5.8212    -3.0553 C.ar    
  23 C23            4.3032    -6.4395    -4.2818 C.ar    
  24 C24            3.5826    -5.8213    -5.2863 C.ar    
  25 C25            3.0072    -4.5869    -5.0589 C.ar    
  26 C26            5.4881    -4.1408    -1.0082 C.3     
  27 C27            6.4170    -3.4251    -1.9547 C.ar    
  28 C28            6.8108    -2.1273    -1.6873 C.ar    
  29 C29            7.6629    -1.4707    -2.5555 C.ar    
  30 C30            8.1215    -2.1121    -3.6910 C.ar    
  31 C31            7.7284    -3.4102    -3.9579 C.ar    
  32 C32            6.8798    -4.0683    -3.0874 C.ar    
  33 H33           -1.1444     1.5973     0.5953 H       
  34 H34           -0.7972    -0.8542     0.7928 H       
  35 H35            1.4256    -1.7998     0.3661 H       
  36 H36            0.7033     3.0461    -0.0058 H       
  37 H37            5.6092    -0.0054    -0.8381 H       
  38 H38            6.0233     4.5738    -1.4521 H       
  39 H39            4.7993    -2.0924     0.2346 H       
  40 H40            3.0494    -2.3394     0.4467 H       
  41 H41            3.3708    -4.4282    -0.7577 H       
  42 H42            3.1061    -1.8522    -4.1237 H       
  43 H43            1.5052    -2.6233    -4.0573 H       
  44 H44            1.6859    -2.9567    -1.6637 H       
  45 H45            2.1169    -1.2587    -1.9984 H       
  46 H46            5.0056    -6.3052    -2.2709 H       
  47 H47            4.7564    -7.4041    -4.4560 H       
  48 H48            3.4703    -6.3024    -6.2467 H       
  49 H49            2.4440    -4.1040    -5.8438 H       
  50 H50            5.6065    -3.7323    -0.0046 H       
  51 H51            5.7279    -5.2040    -0.9984 H       
  52 H52            6.4525    -1.6261    -0.8002 H       
  53 H53            7.9700    -0.4565    -2.3470 H       
  54 H54            8.7866    -1.5989    -4.3696 H       
  55 H55            8.0865    -3.9112    -4.8452 H       
  56 H56            6.5727    -5.0825    -3.2960 H       
@<TRIPOS>BOND
   1    1    2 1
   2    1    6 2
   3    1   33 1
   4    2    3 2
   5    2   34 1
   6    3    4 1
   7    3   35 1
   8    4    5 1
   9    4    7 2
  10    5    6 1
  11    5   10 am
  12    6   36 1
  13    7    8 1
  14    7   15 1
  15    8    9 2
  16    8   37 1
  17    9   10 1
  18    9   12 1
  19   10   11 2
  20   12   13 1
  21   12   14 2
  22   13   38 1
  23   15   16 1
  24   15   39 1
  25   15   40 1
  26   16   17 1
  27   16   21 1
  28   17   18 1
  29   17   26 1
  30   17   41 1
  31   18   19 ar
  32   18   22 ar
  33   19   20 1
  34   19   25 ar
  35   20   21 1
  36   20   42 1
  37   20   43 1
  38   21   44 1
  39   21   45 1
  40   22   23 ar
  41   22   46 1
  42   23   24 ar
  43   23   47 1
  44   24   25 ar
  45   24   48 1
  46   25   49 1
  47   26   27 1
  48   26   50 1
  49   26   51 1
  50   27   28 ar
  51   27   32 ar
  52   28   29 ar
  53   28   52 1
  54   29   30 ar
  55   29   53 1
  56   30   31 ar
  57   30   54 1
  58   31   32 ar
  59   31   55 1
  60   32   56 1

#	End of record

