#	Name: ASD09080021
#	Creating user name:	WinNT
#	Creation time:	15. 06. 2019 21:20

#	Modifying user name:	WinNT
#	Modification time:	15. 06. 2019 21:20

#	Program:	/corina/corina34_cracker 3.40 0067  02.08.2006

@<TRIPOS>MOLECULE
ASD09080021
  43   44    0    0    0
SMALL
NO_CHARGES


@<TRIPOS>ATOM
   1 C1            -0.0167     1.3799     0.0096 C.ar    
   2 C2             0.0021    -0.0041     0.0020 C.ar    
   3 C3            -1.1844    -0.7169     0.0091 C.ar    
   4 C4            -2.3938    -0.0494     0.0242 C.ar    
   5 C5            -2.4179     1.3436     0.0324 C.ar    
   6 C6            -1.2209     2.0565     0.0305 C.ar    
   7 Cl7            1.4756     2.2669     0.0001 Cl      
   8 Cl8           -1.1526    -2.4526    -0.0017 Cl      
   9 C9            -3.7143     2.0655     0.0481 C.ar    
  10 C10           -3.7388     3.4586     0.0563 C.ar    
  11 C11           -4.9474     4.1250     0.0704 C.ar    
  12 C12           -6.1329     3.4124     0.0765 C.ar    
  13 C13           -6.1145     2.0293     0.0689 C.ar    
  14 C14           -4.9116     1.3528     0.0489 C.ar    
  15 C15           -7.4494     4.1455     0.0919 C.3     
  16 C16           -7.9073     4.4019    -1.3453 C.3     
  17 C17           -9.2797     5.0244    -1.3318 C.2     
  18 N18           -6.9627     5.3132    -2.0050 N.3     
  19 C19           -9.4926     6.1795    -1.9576 C.2     
  20 C20          -10.8308     6.7865    -1.9444 C.2     
  21 O21          -11.7431     6.2336    -1.3621 O.2     
  22 O22          -11.0465     7.9564    -2.5782 O.3     
  23 C23          -12.4432     9.8187    -3.2933 C.3     
  24 C24          -12.3928     8.4973    -2.5236 C.3     
  25 H25            0.9456    -0.5295    -0.0098 H       
  26 H26           -3.3190    -0.6065     0.0293 H       
  27 H27           -1.2346     3.1364     0.0372 H       
  28 H28           -2.8137     4.0160     0.0519 H       
  29 H29           -4.9675     5.2048     0.0771 H       
  30 H30           -7.0430     1.4778     0.0744 H       
  31 H31           -4.8983     0.2729     0.0430 H       
  32 H32           -8.1955     3.5418     0.6087 H       
  33 H33           -7.3295     5.0969     0.6102 H       
  34 H34           -7.9418     3.4581    -1.8895 H       
  35 H35          -10.0904     4.5331    -0.8143 H       
  36 H36           -7.2072     5.4476    -2.9746 H       
  37 H37           -6.9128     6.1961    -1.5190 H       
  38 H38           -8.6819     6.6707    -2.4750 H       
  39 H39          -13.4539    10.2247    -3.2523 H       
  40 H40          -11.7482    10.5278    -2.8437 H       
  41 H41          -12.1634     9.6448    -4.3323 H       
  42 H42          -13.0878     7.7882    -2.9733 H       
  43 H43          -12.6726     8.6712    -1.4846 H       
@<TRIPOS>BOND
   1    1    2 ar
   2    1    7 1
   3    1    6 ar
   4    2    3 ar
   5    2   25 1
   6    3    4 ar
   7    3    8 1
   8    4    5 ar
   9    4   26 1
  10    5    6 ar
  11    5    9 1
  12    6   27 1
  13    9   10 ar
  14    9   14 ar
  15   10   11 ar
  16   10   28 1
  17   11   12 ar
  18   11   29 1
  19   12   13 ar
  20   12   15 1
  21   13   14 ar
  22   13   30 1
  23   14   31 1
  24   15   16 1
  25   15   32 1
  26   15   33 1
  27   16   17 1
  28   16   18 1
  29   16   34 1
  30   17   19 2
  31   17   35 1
  32   18   36 1
  33   18   37 1
  34   19   20 1
  35   19   38 1
  36   20   21 2
  37   20   22 1
  38   22   24 1
  39   23   24 1
  40   23   39 1
  41   23   40 1
  42   23   41 1
  43   24   42 1
  44   24   43 1

#	End of record

