#	Name: ASD01870106
#	Creating user name:	WinNT
#	Creation time:	15. 06. 2019 19:38

#	Modifying user name:	WinNT
#	Modification time:	15. 06. 2019 19:38

#	Program:	/corina/corina34_cracker 3.40 0067  02.08.2006

@<TRIPOS>MOLECULE
ASD01870106
  48   50    0    0    0
SMALL
NO_CHARGES


@<TRIPOS>ATOM
   1 C1            -1.2415     1.5568    -1.1228 C.2     
   2 C2            -1.3184     0.0545    -1.2138 C.3     
   3 O3            -1.2214     2.2229    -2.1307 O.2     
   4 O4            -1.2008     2.1555     0.0787 O.3     
   5 O5            -0.3701    -2.3093    -3.4337 O.3     
   6 C6             0.2074    -1.1668    -4.1328 C.3     
   7 O7            -0.1247    -0.0158    -3.3350 O.3     
   8 C8            -1.3593    -0.3659    -2.6844 C.3     
   9 C9            -1.4720    -1.8713    -2.7940 C.2     
  10 O10           -2.3813    -2.5533    -2.3843 O.2     
  11 C11            1.7264    -1.3205    -4.2325 C.3     
  12 C12           -0.4045    -1.0367    -5.5291 C.3     
  13 C13           -1.0434     3.5037     0.0903 C.ar    
  14 C14           -2.1533     4.3431    -0.0762 C.ar    
  15 C15           -1.9793     5.7287    -0.0625 C.ar    
  16 C16           -0.7192     6.2618     0.1144 C.ar    
  17 C17            0.3753     5.4277     0.2782 C.ar    
  18 C18            0.2149     4.0557     0.2727 C.ar    
  19 C19           -3.4981     3.7661    -0.2654 C.2     
  20 N20           -4.5629     4.5768    -0.4253 N.am    
  21 O21           -3.6457     2.5592    -0.2772 O.2     
  22 C22           -5.8260     4.0309    -0.6778 C.ar    
  23 C23           -6.7219     4.7005    -1.5033 C.ar    
  24 C24           -7.9684     4.1579    -1.7508 C.ar    
  25 C25           -8.3245     2.9504    -1.1780 C.ar    
  26 C26           -7.4354     2.2824    -0.3566 C.ar    
  27 C27           -6.1855     2.8165    -0.1092 C.ar    
  28 N28           -9.6607     2.3721    -1.4447 N.pl3   
  29 O29          -10.4452     2.9596    -2.1678 O.2     
  30 O30           -9.9757     1.3088    -0.9411 O.2     
  31 Cl31          -6.2756     6.2164    -2.2220 Cl      
  32 Cl32          -0.5037     7.9842     0.1313 Cl      
  33 H33           -0.4429    -0.3838    -0.7348 H       
  34 H34           -2.2205    -0.2942    -0.7111 H       
  35 H35           -2.1990     0.1117    -3.1894 H       
  36 H36            1.9641    -2.2181    -4.8034 H       
  37 H37            2.1477    -0.4490    -4.7335 H       
  38 H38            2.1496    -1.4041    -3.2314 H       
  39 H39           -1.4848    -0.9200    -5.4429 H       
  40 H40            0.0162    -0.1651    -6.0305 H       
  41 H41           -0.1810    -1.9324    -6.1086 H       
  42 H42           -2.8299     6.3818    -0.1906 H       
  43 H43            1.3586     5.8528     0.4155 H       
  44 H44            1.0719     3.4122     0.4062 H       
  45 H45           -4.4534     5.5387    -0.3652 H       
  46 H46           -8.6654     4.6774    -2.3917 H       
  47 H47           -7.7169     1.3399     0.0892 H       
  48 H48           -5.4902     2.2918     0.5294 H       
@<TRIPOS>BOND
   1    1    2 1
   2    1    3 2
   3    1    4 1
   4    2    8 1
   5    2   33 1
   6    2   34 1
   7    4   13 1
   8    5    6 1
   9    5    9 1
  10    6    7 1
  11    6   11 1
  12    6   12 1
  13    7    8 1
  14    8    9 1
  15    8   35 1
  16    9   10 2
  17   11   36 1
  18   11   37 1
  19   11   38 1
  20   12   39 1
  21   12   40 1
  22   12   41 1
  23   13   14 ar
  24   13   18 ar
  25   14   15 ar
  26   14   19 1
  27   15   16 ar
  28   15   42 1
  29   16   17 ar
  30   16   32 1
  31   17   18 ar
  32   17   43 1
  33   18   44 1
  34   19   20 am
  35   19   21 2
  36   20   22 1
  37   20   45 1
  38   22   23 ar
  39   22   27 ar
  40   23   24 ar
  41   23   31 1
  42   24   25 ar
  43   24   46 1
  44   25   26 ar
  45   25   28 1
  46   26   27 ar
  47   26   47 1
  48   27   48 1
  49   28   29 2
  50   28   30 2

#	End of record

