#	Name: ASD01914136
#	Creating user name:	WinNT
#	Creation time:	15. 06. 2019 20:02

#	Modifying user name:	WinNT
#	Modification time:	15. 06. 2019 20:02

#	Program:	/corina/corina34_cracker 3.40 0067  02.08.2006

@<TRIPOS>MOLECULE
ASD01914136
  49   52    0    0    0
SMALL
NO_CHARGES


@<TRIPOS>ATOM
   1 C1             0.9503     1.6855     0.2333 C.ar    
   2 C2             0.8036     0.2133     0.2098 C.2     
   3 N3             1.7769    -0.6747     0.1238 N.2     
   4 C4             1.1730    -1.8731     0.1379 C.2     
   5 N5            -0.1078    -1.6674     0.2294 N.2     
   6 O6            -0.3439    -0.4787     0.2775 O.3     
   7 C7             1.8556    -3.2145     0.0611 C.3     
   8 C8             1.5306    -4.0257     1.3175 C.3     
   9 C9             2.2498    -5.3752     1.2556 C.3     
  10 C10            1.7560    -6.1569     0.0342 C.3     
  11 N11            1.9320    -5.3239    -1.1632 N.am    
  12 C12            1.3573    -3.9718    -1.1739 C.3     
  13 C13            0.2748    -6.4984     0.2083 C.3     
  14 C14            2.6078    -5.7912    -2.2316 C.2     
  15 C15            2.6662    -4.9946    -3.4757 C.ar    
  16 C16            1.5255    -4.3404    -3.9430 C.ar    
  17 C17            1.5861    -3.5979    -5.1045 C.ar    
  18 C18            2.7743    -3.5008    -5.8060 C.ar    
  19 C19            3.9102    -4.1477    -5.3485 C.ar    
  20 C20            3.8639    -4.8889    -4.1846 C.ar    
  21 O21            3.1692    -6.8677    -2.1723 O.2     
  22 N22            2.1601     2.2279     0.1639 N.ar    
  23 C23            2.3335     3.5326     0.1814 C.ar    
  24 C24            1.2526     4.3923     0.2740 C.ar    
  25 C25           -0.0296     3.8681     0.3486 C.ar    
  26 C26           -0.1835     2.4922     0.3224 C.ar    
  27 C27            3.7280     4.0981     0.1001 C.3     
  28 Cl28           5.3965    -4.0208    -6.2364 Cl      
  29 H29            2.9337    -3.0705    -0.0103 H       
  30 H30            1.8621    -3.4776     2.1994 H       
  31 H31            0.4546    -4.1900     1.3754 H       
  32 H32            3.3242    -5.2113     1.1727 H       
  33 H33            2.0367    -5.9428     2.1614 H       
  34 H34            2.3348    -7.0746    -0.0707 H       
  35 H35            0.2695    -4.0368    -1.1484 H       
  36 H36            1.6730    -3.4476    -2.0759 H       
  37 H37           -0.3011    -5.5782     0.3066 H       
  38 H38           -0.0745    -7.0545    -0.6616 H       
  39 H39            0.1448    -7.1058     1.1040 H       
  40 H40            0.5968    -4.4154    -3.3968 H       
  41 H41            0.7037    -3.0916    -5.4669 H       
  42 H42            2.8163    -2.9184    -6.7145 H       
  43 H43            4.7502    -5.3928    -3.8282 H       
  44 H44            1.4060     5.4613     0.2882 H       
  45 H45           -0.8887     4.5185     0.4215 H       
  46 H46           -1.1672     2.0500     0.3787 H       
  47 H47            3.9951     4.2573    -0.9446 H       
  48 H48            3.7667     5.0476     0.6338 H       
  49 H49            4.4308     3.3982     0.5522 H       
@<TRIPOS>BOND
   1    1    2 1
   2    1   22 ar
   3    1   26 ar
   4    2    3 2
   5    2    6 1
   6    3    4 1
   7    4    5 2
   8    4    7 1
   9    5    6 1
  10    7    8 1
  11    7   12 1
  12    7   29 1
  13    8    9 1
  14    8   30 1
  15    8   31 1
  16    9   10 1
  17    9   32 1
  18    9   33 1
  19   10   11 1
  20   10   13 1
  21   10   34 1
  22   11   12 1
  23   11   14 am
  24   12   35 1
  25   12   36 1
  26   13   37 1
  27   13   38 1
  28   13   39 1
  29   14   15 1
  30   14   21 2
  31   15   16 ar
  32   15   20 ar
  33   16   17 ar
  34   16   40 1
  35   17   18 ar
  36   17   41 1
  37   18   19 ar
  38   18   42 1
  39   19   20 ar
  40   19   28 1
  41   20   43 1
  42   22   23 ar
  43   23   24 ar
  44   23   27 1
  45   24   25 ar
  46   24   44 1
  47   25   26 ar
  48   25   45 1
  49   26   46 1
  50   27   47 1
  51   27   48 1
  52   27   49 1

#	End of record

