#	Name: ASD01915279
#	Creating user name:	WinNT
#	Creation time:	15. 06. 2019 20:05

#	Modifying user name:	WinNT
#	Modification time:	15. 06. 2019 20:05

#	Program:	/corina/corina34_cracker 3.40 0067  02.08.2006

@<TRIPOS>MOLECULE
ASD01915279
  43   45    0    0    0
SMALL
NO_CHARGES


@<TRIPOS>ATOM
   1 C1            -0.1337     1.5000    -0.0477 C.3     
   2 O2            -0.0822     0.0721    -0.0252 O.3     
   3 C3            -1.3659    -0.5558    -0.0227 C.3     
   4 C4            -1.1929    -2.0526     0.0016 C.2     
   5 N5            -2.2750    -2.8560     0.0080 N.am    
   6 C6            -2.1286    -4.3193     0.0316 C.3     
   7 C7            -2.9929    -4.8767     1.1677 C.3     
   8 N8            -4.3712    -4.3927     1.0129 N.3     
   9 C9            -4.4385    -2.9299     1.1292 C.3     
  10 C10           -3.6336    -2.2927    -0.0023 C.3     
  11 C11           -5.2248    -5.0084     1.9333 C.ar    
  12 C12           -5.8099    -4.2615     2.9467 C.ar    
  13 C13           -6.6530    -4.8724     3.8550 C.ar    
  14 C14           -6.9144    -6.2273     3.7560 C.ar    
  15 C15           -6.3325    -6.9752     2.7472 C.ar    
  16 C16           -5.4938    -6.3686     1.8320 C.ar    
  17 Cl17          -7.9739    -6.9910     4.8996 Cl      
  18 Cl18          -4.7640    -7.3068     0.5667 Cl      
  19 O19           -0.0799    -2.5343     0.0154 O.2     
  20 C20            1.2681     2.0532    -0.0484 C.ar    
  21 N21            1.8713     2.2708    -1.1999 N.ar    
  22 C22            3.1017     2.7561    -1.2397 C.ar    
  23 C23            3.7550     3.0356    -0.0497 C.ar    
  24 C24            3.0881     2.7936     1.1410 C.ar    
  25 N25            1.8563     2.3117     1.1023 N.ar    
  26 H26           -0.6552     1.8307    -0.9459 H       
  27 H27           -0.6652     1.8584     0.8338 H       
  28 H28           -1.9230    -0.2401     0.8594 H       
  29 H29           -1.9130    -0.2678    -0.9203 H       
  30 H30           -2.4608    -4.7359    -0.9193 H       
  31 H31           -1.0844    -4.5802     0.2041 H       
  32 H32           -2.9836    -5.9661     1.1309 H       
  33 H33           -2.5950    -4.5413     2.1255 H       
  34 H34           -5.4777    -2.6074     1.0645 H       
  35 H35           -4.0206    -2.6216     2.0875 H       
  36 H36           -3.5854    -1.2138     0.1452 H       
  37 H37           -4.1079    -2.5135    -0.9585 H       
  38 H38           -5.6059    -3.2039     3.0253 H       
  39 H39           -7.1083    -4.2914     4.6435 H       
  40 H40           -6.5378    -8.0329     2.6726 H       
  41 H41            3.5904     2.9318    -2.1867 H       
  42 H42            4.7596     3.4321    -0.0502 H       
  43 H43            3.5660     2.9990     2.0874 H       
@<TRIPOS>BOND
   1    1    2 1
   2    1   20 1
   3    1   26 1
   4    1   27 1
   5    2    3 1
   6    3    4 1
   7    3   28 1
   8    3   29 1
   9    4    5 am
  10    4   19 2
  11    5    6 1
  12    5   10 1
  13    6    7 1
  14    6   30 1
  15    6   31 1
  16    7    8 1
  17    7   32 1
  18    7   33 1
  19    8    9 1
  20    8   11 1
  21    9   10 1
  22    9   34 1
  23    9   35 1
  24   10   36 1
  25   10   37 1
  26   11   12 ar
  27   11   16 ar
  28   12   13 ar
  29   12   38 1
  30   13   14 ar
  31   13   39 1
  32   14   15 ar
  33   14   17 1
  34   15   16 ar
  35   15   40 1
  36   16   18 1
  37   20   21 ar
  38   20   25 ar
  39   21   22 ar
  40   22   23 ar
  41   22   41 1
  42   23   24 ar
  43   23   42 1
  44   24   25 ar
  45   24   43 1

#	End of record

