#	Name: ASD01230503
#	Creating user name:	WinNT
#	Creation time:	15. 06. 2019 19:14

#	Modifying user name:	WinNT
#	Modification time:	15. 06. 2019 19:14

#	Program:	/corina/corina34_cracker 3.40 0067  02.08.2006

@<TRIPOS>MOLECULE
ASD01230503
  33   34    0    0    0
SMALL
NO_CHARGES


@<TRIPOS>ATOM
   1 C1            -0.0202     1.4015    -0.0035 C.ar    
   2 C2            -0.0001    -0.0006    -0.0008 C.ar    
   3 C3             1.2308    -0.6561    -0.0064 C.ar    
   4 C4             2.3860     0.1106    -0.0145 C.ar    
   5 C5             2.2868     1.4882    -0.0168 C.ar    
   6 N6             1.1108     2.0876    -0.0113 N.ar    
   7 N7            -1.2348     2.0739    -0.0039 N.pl3   
   8 C8            -1.2658    -0.7730     0.0084 C.ar    
   9 C9            -1.4637    -1.8009    -0.9127 C.ar    
  10 C10           -2.6427    -2.5176    -0.9014 C.ar    
  11 C11           -3.6317    -2.2156     0.0267 C.ar    
  12 C12           -3.4371    -1.1928     0.9440 C.ar    
  13 C13           -2.2579    -0.4767     0.9416 C.ar    
  14 O14           -4.7921    -2.9231     0.0358 O.3     
  15 C15           -5.7154    -2.6416     1.0895 C.3     
  16 C16           -6.5860    -1.4456     0.6988 C.3     
  17 C17           -6.6047    -3.8634     1.3284 C.3     
  18 Cl18          -2.8908    -3.7973    -2.0479 Cl      
  19 H19            1.2830    -1.7348    -0.0042 H       
  20 H20            3.3554    -0.3655    -0.0187 H       
  21 H21            3.1868     2.0852    -0.0231 H       
  22 H22           -2.0660     1.5738    -0.0022 H       
  23 H23           -1.2523     3.0437    -0.0058 H       
  24 H24           -0.6952    -2.0355    -1.6343 H       
  25 H25           -4.2079    -0.9602     1.6639 H       
  26 H26           -2.1053     0.3157     1.6593 H       
  27 H27           -5.1658    -2.4083     2.0015 H       
  28 H28           -7.1356    -1.6789    -0.2132 H       
  29 H29           -7.2903    -1.2309     1.5026 H       
  30 H30           -5.9525    -0.5752     0.5286 H       
  31 H31           -5.9844    -4.7154     1.6067 H       
  32 H32           -7.3089    -3.6487     2.1322 H       
  33 H33           -7.1543    -4.0967     0.4164 H       
@<TRIPOS>BOND
   1    1    2 ar
   2    1    6 ar
   3    1    7 1
   4    2    3 ar
   5    2    8 1
   6    3    4 ar
   7    3   19 1
   8    4    5 ar
   9    4   20 1
  10    5    6 ar
  11    5   21 1
  12    7   22 1
  13    7   23 1
  14    8    9 ar
  15    8   13 ar
  16    9   10 ar
  17    9   24 1
  18   10   11 ar
  19   10   18 1
  20   11   12 ar
  21   11   14 1
  22   12   13 ar
  23   12   25 1
  24   13   26 1
  25   14   15 1
  26   15   16 1
  27   15   17 1
  28   15   27 1
  29   16   28 1
  30   16   29 1
  31   16   30 1
  32   17   31 1
  33   17   32 1
  34   17   33 1

#	End of record

