#	Name: ASD03091285
#	Creating user name:	WinNT
#	Creation time:	15. 06. 2019 20:30

#	Modifying user name:	WinNT
#	Modification time:	15. 06. 2019 20:30

#	Program:	/corina/corina34_cracker 3.40 0067  02.08.2006

@<TRIPOS>MOLECULE
ASD03091285
  58   63    0    0    0
SMALL
NO_CHARGES


@<TRIPOS>ATOM
   1 N1             0.0043     1.3604     0.0982 N.2     
   2 C2            -0.0041     0.0645     0.2835 C.2     
   3 N3             1.1298    -0.7015     0.2517 N.am    
   4 C4             2.3358    -0.1327     0.0212 C.2     
   5 C5             2.3727     1.3215    -0.1902 C.ar    
   6 C6             3.5666     1.9977    -0.4340 C.ar    
   7 C7             3.5432     3.3684    -0.6255 C.ar    
   8 C8             2.3375     4.0682    -0.5750 C.ar    
   9 C9             1.1600     3.4196    -0.3371 C.ar    
  10 C10            1.1537     2.0353    -0.1404 C.ar    
  11 O11            3.3529    -0.8008    -0.0096 O.2     
  12 N12           -2.9507    -2.0441     0.4854 N.pl3   
  13 N13           -3.3044    -0.9983     1.3455 N.2     
  14 C14           -2.3267    -0.1347     1.3842 C.2     
  15 C15           -1.2964    -0.6016     0.5390 C.2     
  16 C16           -1.7229    -1.7955    -0.0038 C.2     
  17 C17           -3.7755    -3.2145     0.1754 C.3     
  18 C18            1.0371    -2.1472     0.4692 C.3     
  19 C19            1.6929    -2.9810    -0.6442 C.3     
  20 C20            2.2160    -3.9077     0.4659 C.3     
  21 C21            2.1197    -2.6990     1.4118 C.3     
  22 N22            7.3418     4.6107    -2.1633 N.3     
  23 C23            7.2134     3.8867    -0.8894 C.3     
  24 C24            5.8866     3.1463    -0.8237 C.3     
  25 N25            4.7357     4.0560    -0.8708 N.3     
  26 C26            4.6830     4.7583    -2.1606 C.3     
  27 C27            5.3801     6.1068    -2.0597 C.3     
  28 C28            6.8906     6.0001    -1.9993 C.3     
  29 C29            6.7707     3.9664    -3.3265 C.3     
  30 C30            5.2571     3.8596    -3.2406 C.3     
  31 H31            4.5010     1.4576    -0.4727 H       
  32 H32            2.3355     5.1376    -0.7257 H       
  33 H33            0.2345     3.9751    -0.3009 H       
  34 H34           -2.3089     0.7778     1.9616 H       
  35 H35           -1.1720    -2.4168    -0.6942 H       
  36 H36           -4.4014    -2.9988    -0.6905 H       
  37 H37           -3.1308    -4.0652    -0.0451 H       
  38 H38           -4.4080    -3.4502     1.0313 H       
  39 H39            0.0283    -2.4734     0.7223 H       
  40 H40            0.9759    -3.4599    -1.3110 H       
  41 H41            2.4817    -2.4518    -1.1790 H       
  42 H42            1.5300    -4.7160     0.7192 H       
  43 H43            3.2366    -4.2532     0.3014 H       
  44 H44            3.0251    -2.0927     1.4391 H       
  45 H45            1.7472    -2.9503     2.4049 H       
  46 H46            8.0295     3.1697    -0.8000 H       
  47 H47            7.2690     4.5977    -0.0651 H       
  48 H48            5.8256     2.4559    -1.6649 H       
  49 H49            5.8470     2.5746     0.1035 H       
  50 H50            3.6357     4.9361    -2.4051 H       
  51 H51            5.1066     6.7074    -2.9272 H       
  52 H52            5.0295     6.6151    -1.1615 H       
  53 H53            7.2355     6.3749    -1.0357 H       
  54 H54            7.3224     6.6104    -2.7925 H       
  55 H55            7.0347     4.5412    -4.2142 H       
  56 H56            7.1912     2.9649    -3.4180 H       
  57 H57            4.9866     2.8264    -3.0224 H       
  58 H58            4.8269     4.1413    -4.2016 H       
@<TRIPOS>BOND
   1    1    2 2
   2    1   10 1
   3    2    3 1
   4    2   15 1
   5    3    4 am
   6    3   18 1
   7    4    5 1
   8    4   11 2
   9    5    6 ar
  10    5   10 ar
  11    6    7 ar
  12    6   31 1
  13    7    8 ar
  14    7   25 1
  15    8    9 ar
  16    8   32 1
  17    9   10 ar
  18    9   33 1
  19   12   13 1
  20   12   16 1
  21   12   17 1
  22   13   14 2
  23   14   15 1
  24   14   34 1
  25   15   16 2
  26   16   35 1
  27   17   36 1
  28   17   37 1
  29   17   38 1
  30   18   19 1
  31   18   21 1
  32   18   39 1
  33   19   20 1
  34   19   40 1
  35   19   41 1
  36   20   21 1
  37   20   42 1
  38   20   43 1
  39   21   44 1
  40   21   45 1
  41   22   23 1
  42   22   28 1
  43   22   29 1
  44   23   24 1
  45   23   46 1
  46   23   47 1
  47   24   25 1
  48   24   48 1
  49   24   49 1
  50   25   26 1
  51   26   27 1
  52   26   30 1
  53   26   50 1
  54   27   28 1
  55   27   51 1
  56   27   52 1
  57   28   53 1
  58   28   54 1
  59   29   30 1
  60   29   55 1
  61   29   56 1
  62   30   57 1
  63   30   58 1

#	End of record

