#	Name: ASD03950025
#	Creating user name:	WinNT
#	Creation time:	15. 06. 2019 20:48

#	Modifying user name:	WinNT
#	Modification time:	15. 06. 2019 20:48

#	Program:	/corina/corina34_cracker 3.40 0067  02.08.2006

@<TRIPOS>MOLECULE
ASD03950025
  65   69    0    0    0
SMALL
NO_CHARGES


@<TRIPOS>ATOM
   1 N1            -0.0169     1.3942     0.0097 N.pl3   
   2 N2             0.0021    -0.0041     0.0020 N.2     
   3 C3             1.2312    -0.4340    -0.0120 C.2     
   4 C4             2.1095     0.7332    -0.0141 C.ar    
   5 C5             3.4974     0.8987    -0.0264 C.ar    
   6 C6             4.0419     2.1744    -0.0248 C.ar    
   7 C7             3.2128     3.2966    -0.0104 C.ar    
   8 C8             1.8310     3.1495     0.0020 C.ar    
   9 C9             1.2670     1.8605    -0.0000 C.ar    
  10 C10            0.9593     4.3395     0.0166 C.2     
  11 O11           -0.2495     4.2077     0.0275 O.2     
  12 N12            1.5026     5.5729     0.0181 N.am    
  13 N13            1.2106    -4.6671    -0.0333 N.am    
  14 C14            1.6136    -4.0358     1.2306 C.3     
  15 C15            1.1380    -2.5796     1.2280 C.3     
  16 C16            1.6687    -1.8760    -0.0232 C.3     
  17 C17            1.1162    -2.5668    -1.2720 C.3     
  18 C18            1.5915    -4.0229    -1.2977 C.3     
  19 S19            0.3494    -6.0816    -0.0330 S.o2    
  20 O20            0.6706    -6.6878    -1.2774 O.2     
  21 O21            0.6974    -6.7035     1.1964 O.2     
  22 C22           -1.3863    -5.5547    -0.0108 C.3     
  23 C23           -2.2933    -6.7868    -0.0088 C.3     
  24 C24           -3.7573    -6.3424     0.0099 C.3     
  25 N25           -4.6281    -7.5255     0.0118 N.3     
  26 C26           -6.0304    -7.1489     0.2685 C.3     
  27 C27           -6.8689    -7.6741    -0.9158 C.3     
  28 C28           -5.9839    -8.8094    -1.4944 C.3     
  29 C29           -4.5607    -8.2351    -1.2835 C.3     
  30 N30            7.5093     3.2549    -0.0531 N.pl3   
  31 N31            7.6620     1.8631    -0.0620 N.2     
  32 C32            6.4755     1.3154    -0.0531 C.2     
  33 C33            5.5173     2.3471    -0.0379 C.2     
  34 C34            6.1897     3.5336    -0.0383 C.2     
  35 H35           -0.8150     1.9455     0.0166 H       
  36 H36            4.1450     0.0344    -0.0369 H       
  37 H37            3.6475     4.2853    -0.0086 H       
  38 H38            2.4669     5.6781     0.0094 H       
  39 H39            0.9295     6.3554     0.0277 H       
  40 H40            1.1582    -4.5674     2.0661 H       
  41 H41            2.6992    -4.0655     1.3241 H       
  42 H42            0.0484    -2.5527     1.2260 H       
  43 H43            1.5132    -2.0727     2.1171 H       
  44 H44            2.7576    -1.9251    -0.0331 H       
  45 H45            0.0267    -2.5401    -1.2505 H       
  46 H46            1.4757    -2.0510    -2.1623 H       
  47 H47            2.6752    -4.0516    -1.4105 H       
  48 H48            1.1214    -4.5461    -2.1305 H       
  49 H49           -1.5750    -4.9631     0.8850 H       
  50 H50           -1.5943    -4.9518    -0.8948 H       
  51 H51           -2.1046    -7.3784    -0.9047 H       
  52 H52           -2.0853    -7.3897     0.8751 H       
  53 H53           -3.9460    -5.7509     0.9057 H       
  54 H54           -3.9653    -5.7396    -0.8741 H       
  55 H55           -6.3730    -7.6058     1.1969 H       
  56 H56           -6.1173    -6.0643     0.3322 H       
  57 H57           -7.8232    -8.0689    -0.5673 H       
  58 H58           -7.0227    -6.8897    -1.6569 H       
  59 H59           -6.1189    -9.7341    -0.9334 H       
  60 H60           -6.1897    -8.9635    -2.5536 H       
  61 H61           -4.3095    -7.5398    -2.0844 H       
  62 H62           -3.8291    -9.0417    -1.2366 H       
  63 H63            8.2283     3.9060    -0.0532 H       
  64 H64            6.2663     0.2558    -0.0570 H       
  65 H65            5.7459     4.5182    -0.0283 H       
@<TRIPOS>BOND
   1    1    2 1
   2    1    9 1
   3    1   35 1
   4    2    3 2
   5    3    4 1
   6    3   16 1
   7    4    5 ar
   8    4    9 ar
   9    5    6 ar
  10    5   36 1
  11    6    7 ar
  12    6   33 1
  13    7    8 ar
  14    7   37 1
  15    8    9 ar
  16    8   10 1
  17   10   11 2
  18   10   12 am
  19   12   38 1
  20   12   39 1
  21   13   14 1
  22   13   18 1
  23   13   19 am
  24   14   15 1
  25   14   40 1
  26   14   41 1
  27   15   16 1
  28   15   42 1
  29   15   43 1
  30   16   17 1
  31   16   44 1
  32   17   18 1
  33   17   45 1
  34   17   46 1
  35   18   47 1
  36   18   48 1
  37   19   20 2
  38   19   21 2
  39   19   22 1
  40   22   23 1
  41   22   49 1
  42   22   50 1
  43   23   24 1
  44   23   51 1
  45   23   52 1
  46   24   25 1
  47   24   53 1
  48   24   54 1
  49   25   26 1
  50   25   29 1
  51   26   27 1
  52   26   55 1
  53   26   56 1
  54   27   28 1
  55   27   57 1
  56   27   58 1
  57   28   29 1
  58   28   59 1
  59   28   60 1
  60   29   61 1
  61   29   62 1
  62   30   31 1
  63   30   34 1
  64   30   63 1
  65   31   32 2
  66   32   33 1
  67   32   64 1
  68   33   34 2
  69   34   65 1

#	End of record

