#	Name: ASD01890095
#	Creating user name:	WinNT
#	Creation time:	15. 06. 2019 19:50

#	Modifying user name:	WinNT
#	Modification time:	15. 06. 2019 19:50

#	Program:	/corina/corina34_cracker 3.40 0067  02.08.2006

@<TRIPOS>MOLECULE
ASD01890095
  62   64    0    0    0
SMALL
NO_CHARGES


@<TRIPOS>ATOM
   1 C1             1.5605     1.0011    -1.6468 C.2     
   2 C2             1.1178    -0.3580    -1.1695 C.3     
   3 C3             0.5221    -1.1255    -2.3215 C.2     
   4 O4             2.7207     1.3255    -1.5542 O.2     
   5 O5             0.6670     1.8491    -2.1799 O.3     
   6 O6             0.4631    -0.6207    -3.4176 O.2     
   7 O7             0.0570    -2.3700    -2.1298 O.3     
   8 C8             2.3227    -1.1218    -0.6165 C.3     
   9 C9             2.9275    -0.3426     0.5531 C.3     
  10 C10            4.1848    -1.0307     1.0185 C.2     
  11 C11            1.8800    -2.4809    -0.1392 C.ar    
  12 C12            2.4236    -3.6214    -0.7001 C.ar    
  13 C13            2.0175    -4.8681    -0.2623 C.ar    
  14 C14            1.0680    -4.9743     0.7367 C.ar    
  15 C15            0.5251    -3.8339     1.2983 C.ar    
  16 C16            0.9344    -2.5871     0.8635 C.ar    
  17 C17            4.9556    -0.4737     2.1376 C.ar    
  18 C18            6.1243    -1.1113     2.5720 C.ar    
  19 C19            6.8406    -0.5869     3.6169 C.ar    
  20 C20            6.4079     0.5761     4.2456 C.ar    
  21 C21            5.2477     1.2132     3.8179 C.ar    
  22 C22            4.5274     0.7001     2.7701 C.ar    
  23 O23            7.1196     1.0904     5.2796 O.3     
  24 C24            8.1172     1.9675     4.9935 C.ar    
  25 C25            8.3129     2.3960     3.6884 C.ar    
  26 C26            9.3274     3.2881     3.4004 C.ar    
  27 C27           10.1479     3.7537     4.4113 C.ar    
  28 C28            9.9550     3.3284     5.7127 C.ar    
  29 C29            8.9383     2.4407     6.0070 C.ar    
  30 O30            4.5603    -2.0447     0.4688 O.2     
  31 C31            1.1643     3.1410    -2.6182 C.3     
  32 C32            0.0095     3.9636    -3.1932 C.3     
  33 C33           -0.5031    -3.0495    -3.2843 C.3     
  34 C34           -0.9772    -4.4452    -2.8742 C.3     
  35 H35            0.3701    -0.2418    -0.3849 H       
  36 H36            3.0704    -1.2380    -1.4011 H       
  37 H37            3.1663     0.6706     0.2298 H       
  38 H38            2.2103    -0.3029     1.3729 H       
  39 H39            3.1654    -3.5384    -1.4807 H       
  40 H40            2.4417    -5.7591    -0.7011 H       
  41 H41            0.7502    -5.9484     1.0783 H       
  42 H42           -0.2170    -3.9169     2.0786 H       
  43 H43            0.5129    -1.6961     1.3048 H       
  44 H44            6.4607    -2.0147     2.0850 H       
  45 H45            7.7420    -1.0779     3.9527 H       
  46 H46            4.9157     2.1157     4.3096 H       
  47 H47            3.6291     1.1979     2.4359 H       
  48 H48            7.6728     2.0321     2.8983 H       
  49 H49            9.4802     3.6219     2.3847 H       
  50 H50           10.9410     4.4506     4.1839 H       
  51 H51           10.5973     3.6936     6.5005 H       
  52 H52            8.7852     2.1123     7.0244 H       
  53 H53            1.5998     3.6694    -1.7702 H       
  54 H54            1.9247     2.9963    -3.3856 H       
  55 H55           -0.7510     4.1083    -2.4258 H       
  56 H56            0.3828     4.9334    -3.5222 H       
  57 H57           -0.4261     3.4352    -4.0412 H       
  58 H58           -1.3475    -2.4772    -3.6684 H       
  59 H59            0.2586    -3.1376    -4.0590 H       
  60 H60           -1.3977    -4.9553    -3.7409 H       
  61 H61           -0.1328    -5.0175    -2.4902 H       
  62 H62           -1.7389    -4.3571    -2.0996 H       
@<TRIPOS>BOND
   1    1    2 1
   2    1    4 2
   3    1    5 1
   4    2    3 1
   5    2    8 1
   6    2   35 1
   7    3    6 2
   8    3    7 1
   9    5   31 1
  10    7   33 1
  11    8    9 1
  12    8   11 1
  13    8   36 1
  14    9   10 1
  15    9   37 1
  16    9   38 1
  17   10   17 1
  18   10   30 2
  19   11   12 ar
  20   11   16 ar
  21   12   13 ar
  22   12   39 1
  23   13   14 ar
  24   13   40 1
  25   14   15 ar
  26   14   41 1
  27   15   16 ar
  28   15   42 1
  29   16   43 1
  30   17   18 ar
  31   17   22 ar
  32   18   19 ar
  33   18   44 1
  34   19   20 ar
  35   19   45 1
  36   20   21 ar
  37   20   23 1
  38   21   22 ar
  39   21   46 1
  40   22   47 1
  41   23   24 1
  42   24   25 ar
  43   24   29 ar
  44   25   26 ar
  45   25   48 1
  46   26   27 ar
  47   26   49 1
  48   27   28 ar
  49   27   50 1
  50   28   29 ar
  51   28   51 1
  52   29   52 1
  53   31   32 1
  54   31   53 1
  55   31   54 1
  56   32   55 1
  57   32   56 1
  58   32   57 1
  59   33   34 1
  60   33   58 1
  61   33   59 1
  62   34   60 1
  63   34   61 1
  64   34   62 1

#	End of record

