#	Name: ASD00461028
#	Creating user name:	WinNT
#	Creation time:	15. 06. 2019 18:36

#	Modifying user name:	WinNT
#	Modification time:	15. 06. 2019 18:36

#	Program:	/corina/corina34_cracker 3.40 0067  02.08.2006

@<TRIPOS>MOLECULE
ASD00461028
  54   56    0    0    0
SMALL
NO_CHARGES


@<TRIPOS>ATOM
   1 C1            -0.0167     1.3833     0.0096 C.ar    
   2 C2             0.0021    -0.0041     0.0020 C.ar    
   3 C3             1.1706     2.0890     0.0021 C.ar    
   4 C4             1.2139    -0.6789    -0.0132 C.ar    
   5 O5            -1.1648    -0.7007     0.0099 O.3     
   6 C6             2.3774     1.4139    -0.0130 C.ar    
   7 C7             2.3988     0.0316    -0.0207 C.ar    
   8 C8             3.7158    -0.7008    -0.0367 C.3     
   9 N9             4.6677    -0.0161     0.8482 N.3     
  10 C10            5.6992    -0.9441     1.3306 C.3     
  11 C11            6.6552    -0.2075     2.2332 C.ar    
  12 C12            6.4074    -0.1409     3.5891 C.ar    
  13 C13            7.7813     0.3947     1.7001 C.ar    
  14 C14            7.2906     0.5394     4.4245 C.ar    
  15 C15            8.6642     1.0715     2.5197 C.ar    
  16 C16            8.4246     1.1513     3.8823 C.ar    
  17 C17           -2.3744     0.0601     0.0260 C.3     
  18 H18            5.0838     0.7785     0.3860 H       
  19 C19            7.0287     0.6145     5.8825 C.ar    
  20 C20            5.7775     1.0137     6.3488 C.ar    
  21 C21            5.5395     1.0819     7.7065 C.ar    
  22 C22            6.5400     0.7548     8.6040 C.ar    
  23 C23            7.7837     0.3578     8.1469 C.ar    
  24 C24            8.0312     0.2806     6.7913 C.ar    
  25 O25            9.2916     1.8167     4.6891 O.3     
  26 C26           10.4315     2.4117     4.0658 C.3     
  27 C27            6.2741     0.8316    10.0854 C.3     
  28 F28            5.7879    -0.4002    10.5364 F       
  29 F29            7.4623     1.1382    10.7571 F       
  30 F30            5.3252     1.8282    10.3377 F       
  31 C31            4.2699    -0.7226    -1.4626 C.3     
  32 H32           -0.9590     1.9110     0.0170 H       
  33 H33            1.1565     3.1689     0.0077 H       
  34 H34            1.2312    -1.7587    -0.0188 H       
  35 H35            3.3047     1.9675    -0.0189 H       
  36 H36            3.5672    -1.7231     0.3111 H       
  37 H37            5.2275    -1.7551     1.8854 H       
  38 H38            6.2449    -1.3545     0.4809 H       
  39 H39            5.5294    -0.6152     4.0022 H       
  40 H40            7.9712     0.3351     0.6386 H       
  41 H41            9.5416     1.5392     2.0979 H       
  42 H42           -2.3995     0.6837     0.9196 H       
  43 H43           -2.4172     0.6932    -0.8603 H       
  44 H44           -3.2290    -0.6164     0.0308 H       
  45 H45            4.9958     1.2697     5.6489 H       
  46 H46            4.5704     1.3915     8.0690 H       
  47 H47            8.5613     0.1039     8.8521 H       
  48 H48            9.0025    -0.0298     6.4355 H       
  49 H49           10.1017     3.1407     3.3256 H       
  50 H50           11.0397     2.9099     4.8207 H       
  51 H51           11.0226     1.6381     3.5755 H       
  52 H52            4.4185     0.2997    -1.8104 H       
  53 H53            5.2224    -1.2524    -1.4742 H       
  54 H54            3.5636    -1.2307    -2.1192 H       
@<TRIPOS>BOND
   1    1    2 ar
   2    1    3 ar
   3    1   32 1
   4    2    4 ar
   5    2    5 1
   6    3    6 ar
   7    3   33 1
   8    4    7 ar
   9    4   34 1
  10    5   17 1
  11    6    7 ar
  12    6   35 1
  13    7    8 1
  14    8    9 1
  15    8   31 1
  16    8   36 1
  17    9   10 1
  18    9   18 1
  19   10   11 1
  20   10   37 1
  21   10   38 1
  22   11   12 ar
  23   11   13 ar
  24   12   14 ar
  25   12   39 1
  26   13   15 ar
  27   13   40 1
  28   14   19 1
  29   14   16 ar
  30   15   16 ar
  31   15   41 1
  32   16   25 1
  33   17   42 1
  34   17   43 1
  35   17   44 1
  36   19   20 ar
  37   19   24 ar
  38   20   21 ar
  39   20   45 1
  40   21   22 ar
  41   21   46 1
  42   22   23 ar
  43   22   27 1
  44   23   24 ar
  45   23   47 1
  46   24   48 1
  47   25   26 1
  48   26   49 1
  49   26   50 1
  50   26   51 1
  51   27   28 1
  52   27   29 1
  53   27   30 1
  54   31   52 1
  55   31   53 1
  56   31   54 1

#	End of record

