#	Name: ASD09740011
#	Creating user name:	WinNT
#	Creation time:	15. 06. 2019 21:22

#	Modifying user name:	WinNT
#	Modification time:	15. 06. 2019 21:22

#	Program:	/corina/corina34_cracker 3.40 0067  02.08.2006

@<TRIPOS>MOLECULE
ASD09740011
  40   42    0    0    0
SMALL
NO_CHARGES


@<TRIPOS>ATOM
   1 N1            -0.0144     1.2085     0.0087 N.2     
   2 O2             0.0021    -0.0041     0.0020 O.3     
   3 C3             1.2056     1.6802    -0.0004 C.2     
   4 N4             2.0459     0.6247    -0.0141 N.2     
   5 C5             1.2702    -0.4439    -0.0125 C.2     
   6 C6             1.7131    -1.8528    -0.0235 C.ar    
   7 C7             0.7696    -2.8831    -0.0201 C.ar    
   8 C8             3.0753    -2.1578    -0.0432 C.ar    
   9 C9             3.4872    -3.4737    -0.0540 C.ar    
  10 C10            2.5505    -4.4971    -0.0458 C.ar    
  11 C11            1.1888    -4.1995    -0.0310 C.ar    
  12 C12            1.5943     3.1135     0.0031 C.ar    
  13 N13            2.8777     3.4467    -0.0078 N.ar    
  14 C14            3.2647     4.7056    -0.0055 C.ar    
  15 C15            2.3387     5.7330     0.0084 C.ar    
  16 C16            0.9853     5.4284     0.0201 C.ar    
  17 C17            0.6078     4.0962     0.0121 C.ar    
  18 O18            0.2730    -5.2049    -0.0225 O.3     
  19 C19           -1.9782    -6.0835     0.0003 C.3     
  20 C20           -1.1050    -4.8272    -0.0075 C.3     
  21 O21            2.9613    -5.7921    -0.0574 O.3     
  22 C22            4.6385    -7.5319    -0.0884 C.3     
  23 C23            4.3710    -6.0255    -0.0779 C.3     
  24 H24           -0.2852    -2.6511    -0.0087 H       
  25 H25            3.8065    -1.3630    -0.0503 H       
  26 H26            4.5413    -3.7083    -0.0692 H       
  27 H27            4.3191     4.9389    -0.0143 H       
  28 H28            2.6660     6.7622     0.0104 H       
  29 H29            0.2428     6.2127     0.0314 H       
  30 H30           -0.4370     3.8230     0.0208 H       
  31 H31           -1.7731    -6.6740    -0.8927 H       
  32 H32           -1.7542    -6.6762     0.8872 H       
  33 H33           -3.0294    -5.7953     0.0117 H       
  34 H34           -1.3102    -4.2366     0.8854 H       
  35 H35           -1.3290    -4.2345    -0.8944 H       
  36 H36            4.2084    -7.9835     0.8055 H       
  37 H37            4.1839    -7.9754    -0.9743 H       
  38 H38            5.7137    -7.7098    -0.1041 H       
  39 H39            4.8010    -5.5738    -0.9718 H       
  40 H40            4.8255    -5.5819     0.8080 H       
@<TRIPOS>BOND
   1    1    2 1
   2    1    3 2
   3    2    5 1
   4    3    4 1
   5    3   12 1
   6    4    5 2
   7    5    6 1
   8    6    7 ar
   9    6    8 ar
  10    7   11 ar
  11    7   24 1
  12    8    9 ar
  13    8   25 1
  14    9   10 ar
  15    9   26 1
  16   10   11 ar
  17   10   21 1
  18   11   18 1
  19   12   13 ar
  20   12   17 ar
  21   13   14 ar
  22   14   15 ar
  23   14   27 1
  24   15   16 ar
  25   15   28 1
  26   16   17 ar
  27   16   29 1
  28   17   30 1
  29   18   20 1
  30   19   20 1
  31   19   31 1
  32   19   32 1
  33   19   33 1
  34   20   34 1
  35   20   35 1
  36   21   23 1
  37   22   23 1
  38   22   36 1
  39   22   37 1
  40   22   38 1
  41   23   39 1
  42   23   40 1

#	End of record

