#	Name: ASD04910132
#	Creating user name:	WinNT
#	Creation time:	15. 06. 2019 20:55

#	Modifying user name:	WinNT
#	Modification time:	15. 06. 2019 20:55

#	Program:	/corina/corina34_cracker 3.40 0067  02.08.2006

@<TRIPOS>MOLECULE
ASD04910132
  29   29    0    0    0
SMALL
NO_CHARGES


@<TRIPOS>ATOM
   1 C1            -0.0180     1.4755     0.0102 C.2     
   2 C2             0.0021    -0.0041     0.0020 C.ar    
   3 C3             1.2200    -0.6840    -0.0133 C.ar    
   4 C4             1.2396    -2.0652    -0.0209 C.ar    
   5 C5             0.0353    -2.7807    -0.0132 C.ar    
   6 C6            -1.1833    -2.0946     0.0021 C.ar    
   7 C7            -1.1983    -0.7178     0.0154 C.ar    
   8 O8             1.0253     2.0970     0.0035 O.2     
   9 O9            -1.1934     2.1330     0.0193 O.3     
  10 F10            2.4185    -2.7250    -0.0361 F       
  11 C11            0.0524    -4.2528    -0.0218 C.2     
  12 O12            1.1093    -4.8468    -0.0355 O.2     
  13 C13           -1.2438    -5.0215    -0.0135 C.3     
  14 C14           -0.9468    -6.5224    -0.0250 C.3     
  15 C15           -2.2628    -7.3027    -0.0166 C.3     
  16 C16           -1.1371     3.5839     0.0269 C.3     
  17 H17            2.1474    -0.1307    -0.0195 H       
  18 H18           -2.1127    -2.6447     0.0080 H       
  19 H19           -2.1398    -0.1890     0.0320 H       
  20 H20           -1.8097    -4.7699     0.8835 H       
  21 H21           -1.8270    -4.7598    -0.8964 H       
  22 H22           -0.3809    -6.7739    -0.9220 H       
  23 H23           -0.3636    -6.7841     0.8579 H       
  24 H24           -2.8287    -7.0512     0.8804 H       
  25 H25           -2.8460    -7.0410    -0.8995 H       
  26 H26           -2.0512    -8.3720    -0.0247 H       
  27 H27           -0.6053     3.9222     0.9162 H       
  28 H28           -0.6138     3.9319    -0.8637 H       
  29 H29           -2.1499     3.9868     0.0339 H       
@<TRIPOS>BOND
   1    1    2 1
   2    1    8 2
   3    1    9 1
   4    2    3 ar
   5    2    7 ar
   6    3    4 ar
   7    3   17 1
   8    4    5 ar
   9    4   10 1
  10    5    6 ar
  11    5   11 1
  12    6    7 ar
  13    6   18 1
  14    7   19 1
  15    9   16 1
  16   11   12 2
  17   11   13 1
  18   13   14 1
  19   13   20 1
  20   13   21 1
  21   14   15 1
  22   14   22 1
  23   14   23 1
  24   15   24 1
  25   15   25 1
  26   15   26 1
  27   16   27 1
  28   16   28 1
  29   16   29 1

#	End of record

