#	Name: ASD05303025
#	Creating user name:	WinNT
#	Creation time:	15. 06. 2019 20:58

#	Modifying user name:	WinNT
#	Modification time:	15. 06. 2019 20:58

#	Program:	/corina/corina34_cracker 3.40 0067  02.08.2006

@<TRIPOS>MOLECULE
ASD05303025
  42   45    0    0    0
SMALL
NO_CHARGES


@<TRIPOS>ATOM
   1 C1            -0.0088     1.2075     0.8125 C.ar    
   2 C2             0.1089    -0.1690     0.8502 C.ar    
   3 C3             1.3050    -0.7719     0.5021 C.ar    
   4 C4             2.3816     0.0071     0.1164 C.ar    
   5 C5             2.2654     1.3948     0.0741 C.ar    
   6 C6             1.0642     1.9900     0.4260 C.ar    
   7 O7             3.3162     2.1628    -0.3115 O.3     
   8 N8             3.6067    -0.5900    -0.2324 N.am    
   9 C9             4.5614     1.6247    -0.3601 C.ar    
  10 C10            4.7367     0.2429    -0.3246 C.ar    
  11 C11            6.0080    -0.3009    -0.3784 C.ar    
  12 C12            7.1097     0.5321    -0.4657 C.ar    
  13 C13            6.9396     1.9032    -0.4989 C.ar    
  14 C14            5.6708     2.4511    -0.4464 C.ar    
  15 C15            3.6949    -1.9138    -0.4696 C.2     
  16 O16            4.7829    -2.4297    -0.6420 O.2     
  17 S17            2.2341    -2.8973    -0.5300 S.3     
  18 C18            2.9286    -4.4485    -0.9946 C.ar    
  19 C19            2.7974    -4.9070    -2.2990 C.ar    
  20 C20            3.3429    -6.1235    -2.6600 C.ar    
  21 C21            4.0191    -6.8846    -1.7243 C.ar    
  22 C22            4.1515    -6.4309    -0.4244 C.ar    
  23 C23            3.6135    -5.2130    -0.0585 C.ar    
  24 C24            3.7586    -4.7193     1.3579 C.3     
  25 C25            2.5123    -5.0982     2.1604 C.3     
  26 H26           -0.9447     1.6743     1.0820 H       
  27 H27           -0.7330    -0.7746     1.1518 H       
  28 H28            1.3979    -1.8475     0.5317 H       
  29 H29            0.9659     3.0651     0.3981 H       
  30 H30            6.1400    -1.3724    -0.3527 H       
  31 H31            8.1031     0.1103    -0.5076 H       
  32 H32            7.8018     2.5502    -0.5661 H       
  33 H33            5.5443     3.5233    -0.4725 H       
  34 H34            2.2691    -4.3132    -3.0302 H       
  35 H35            3.2410    -6.4808    -3.6741 H       
  36 H36            4.4444    -7.8356    -2.0090 H       
  37 H37            4.6802    -7.0278     0.3040 H       
  38 H38            4.6370    -5.1761     1.8137 H       
  39 H39            3.8731    -3.6353     1.3549 H       
  40 H40            2.6173    -4.7411     3.1848 H       
  41 H41            1.6339    -4.6413     1.7046 H       
  42 H42            2.3978    -6.1822     2.1634 H       
@<TRIPOS>BOND
   1    1    2 ar
   2    1    6 ar
   3    1   26 1
   4    2    3 ar
   5    2   27 1
   6    3    4 ar
   7    3   28 1
   8    4    5 ar
   9    4    8 1
  10    5    6 ar
  11    5    7 1
  12    6   29 1
  13    7    9 1
  14    8   10 1
  15    8   15 am
  16    9   10 ar
  17    9   14 ar
  18   10   11 ar
  19   11   12 ar
  20   11   30 1
  21   12   13 ar
  22   12   31 1
  23   13   14 ar
  24   13   32 1
  25   14   33 1
  26   15   16 2
  27   15   17 1
  28   17   18 1
  29   18   19 ar
  30   18   23 ar
  31   19   20 ar
  32   19   34 1
  33   20   21 ar
  34   20   35 1
  35   21   22 ar
  36   21   36 1
  37   22   23 ar
  38   22   37 1
  39   23   24 1
  40   24   25 1
  41   24   38 1
  42   24   39 1
  43   25   40 1
  44   25   41 1
  45   25   42 1

#	End of record

