#	Name: ASD03930168
#	Creating user name:	WinNT
#	Creation time:	15. 06. 2019 20:47

#	Modifying user name:	WinNT
#	Modification time:	15. 06. 2019 20:47

#	Program:	/corina/corina34_cracker 3.40 0067  02.08.2006

@<TRIPOS>MOLECULE
ASD03930168
  21   22    0    0    0
SMALL
NO_CHARGES


@<TRIPOS>ATOM
   1 C1            -0.0167     1.3813     0.0096 C.ar    
   2 C2             0.0021    -0.0041     0.0020 C.ar    
   3 C3             1.2192    -0.6799    -0.0132 C.ar    
   4 C4             2.4120     0.0408    -0.0207 C.ar    
   5 C5             2.3843     1.4208    -0.0130 C.ar    
   6 C6             1.1755     2.0916     0.0021 C.ar    
   7 O7            -1.2028     2.0447     0.0188 O.3     
   8 O8             0.5704    -4.1169    -0.0249 O.3     
   9 N9             0.2085    -2.9593    -0.0153 N.2     
  10 C10            1.2463    -2.1640    -0.0209 C.2     
  11 N11            2.3489    -2.9465    -0.0356 N.2     
  12 C12            1.9056    -4.1790    -0.0380 C.2     
  13 C13            2.7433    -5.4316    -0.0531 C.3     
  14 H14           -0.9249    -0.5582     0.0082 H       
  15 H15            3.3579    -0.4803    -0.0322 H       
  16 H16            3.3094     1.9781    -0.0189 H       
  17 H17            1.1590     3.1715     0.0080 H       
  18 H18           -1.5419     2.2318     0.9049 H       
  19 H19            2.0911    -6.3049    -0.0523 H       
  20 H20            3.3643    -5.4426    -0.9488 H       
  21 H21            3.3805    -5.4532     0.8310 H       
@<TRIPOS>BOND
   1    1    2 ar
   2    1    6 ar
   3    1    7 1
   4    2    3 ar
   5    2   14 1
   6    3    4 ar
   7    3   10 1
   8    4    5 ar
   9    4   15 1
  10    5    6 ar
  11    5   16 1
  12    6   17 1
  13    7   18 1
  14    8    9 1
  15    8   12 1
  16    9   10 2
  17   10   11 1
  18   11   12 2
  19   12   13 1
  20   13   19 1
  21   13   20 1
  22   13   21 1

#	End of record

