#	Name: ASD03090319
#	Creating user name:	WinNT
#	Creation time:	15. 06. 2019 20:28

#	Modifying user name:	WinNT
#	Modification time:	15. 06. 2019 20:28

#	Program:	/corina/corina34_cracker 3.40 0067  02.08.2006

@<TRIPOS>MOLECULE
ASD03090319
  53   56    0    0    0
SMALL
NO_CHARGES


@<TRIPOS>ATOM
   1 C1             0.1935     1.0610     0.8644 C.ar    
   2 N2            -0.9261     1.4780     1.4450 N.ar    
   3 C3            -2.0651     0.8446     1.2856 C.ar    
   4 C4            -2.1388    -0.3036     0.4901 C.ar    
   5 C5            -0.9793    -0.7719    -0.1370 C.ar    
   6 C6             0.1987    -0.0724     0.0526 C.ar    
   7 C7            -3.4245    -1.0129     0.3149 C.2     
   8 N8            -6.9293    -1.2580     0.4202 N.pl3   
   9 C9            -7.4310    -0.0764     0.9754 C.ar    
  10 C10           -8.6623     0.4169     0.5642 C.ar    
  11 C11           -9.1571     1.5843     1.1132 C.ar    
  12 C12           -8.4268     2.2632     2.0728 C.ar    
  13 C13           -7.1963     1.7736     2.4855 C.ar    
  14 C14           -6.7009     0.6022     1.9427 C.ar    
  15 N15           -4.6227    -0.5163     0.5513 N.2     
  16 C16           -5.5512    -1.4353     0.2843 C.2     
  17 N17           -4.9607    -2.5343    -0.1273 N.2     
  18 N18           -3.5791    -2.2832    -0.1218 N.pl3   
  19 C19           -2.5158    -3.2155    -0.5045 C.3     
  20 C20           -2.2742    -3.1224    -2.0124 C.3     
  21 C21           -1.0819    -4.0023    -2.3932 C.3     
  22 F22           -8.9127     3.4045     2.6081 F       
  23 O23           -3.4385    -3.5699    -2.7098 O.3     
  24 F24           -6.4846     2.4379     3.4221 F       
  25 N25            1.4546     2.9133     1.8559 N.am    
  26 C26            2.6267     3.7504     2.1507 C.3     
  27 C27            2.1585     4.8781     3.0945 C.3     
  28 C28            0.8728     4.2871     3.7310 C.3     
  29 C29            0.2827     3.4800     2.5478 C.3     
  30 C30            1.4509     1.8132     1.0772 C.2     
  31 O31            2.4798     1.4386     0.5498 O.2     
  32 H32           -2.9546     1.2139     1.7743 H       
  33 H33           -1.0043    -1.6556    -0.7574 H       
  34 H34            1.1131    -0.4046    -0.4163 H       
  35 H35           -7.5389    -1.9544     0.1297 H       
  36 H36           -9.2331    -0.1119    -0.1849 H       
  37 H37          -10.1146     1.9676     0.7928 H       
  38 H38           -5.7429     0.2205     2.2636 H       
  39 H39           -1.5992    -2.9592     0.0268 H       
  40 H40           -2.8133    -4.2318    -0.2462 H       
  41 H41           -2.0635    -2.0879    -2.2834 H       
  42 H42           -1.2926    -5.0369    -2.1222 H       
  43 H43           -0.9098    -3.9360    -3.4675 H       
  44 H44           -0.1939    -3.6610    -1.8612 H       
  45 H45           -3.6856    -4.4845    -2.5164 H       
  46 H46            3.3956     3.1526     2.6401 H       
  47 H47            3.0183     4.1782     1.2278 H       
  48 H48            2.9099     5.0785     3.8583 H       
  49 H49            1.9292     5.7824     2.5309 H       
  50 H50            1.1165     3.6323     4.5677 H       
  51 H51            0.1915     5.0790     4.0423 H       
  52 H52           -0.2714     4.1382     1.8785 H       
  53 H53           -0.3623     2.6826     2.9168 H       
@<TRIPOS>BOND
   1    1    2 ar
   2    1   30 1
   3    1    6 ar
   4    2    3 ar
   5    3    4 ar
   6    3   32 1
   7    4    5 ar
   8    4    7 1
   9    5    6 ar
  10    5   33 1
  11    6   34 1
  12    7   15 2
  13    7   18 1
  14    8    9 1
  15    8   16 1
  16    8   35 1
  17    9   10 ar
  18    9   14 ar
  19   10   11 ar
  20   10   36 1
  21   11   12 ar
  22   11   37 1
  23   12   13 ar
  24   12   22 1
  25   13   14 ar
  26   13   24 1
  27   14   38 1
  28   15   16 1
  29   16   17 2
  30   17   18 1
  31   18   19 1
  32   19   20 1
  33   19   39 1
  34   19   40 1
  35   20   21 1
  36   20   23 1
  37   20   41 1
  38   21   42 1
  39   21   43 1
  40   21   44 1
  41   23   45 1
  42   25   26 1
  43   25   29 1
  44   25   30 am
  45   26   27 1
  46   26   46 1
  47   26   47 1
  48   27   28 1
  49   27   48 1
  50   27   49 1
  51   28   29 1
  52   28   50 1
  53   28   51 1
  54   29   52 1
  55   29   53 1
  56   30   31 2

#	End of record

