#	Name: ASD01670069
#	Creating user name:	WinNT
#	Creation time:	15. 06. 2019 19:22

#	Modifying user name:	WinNT
#	Modification time:	15. 06. 2019 19:22

#	Program:	/corina/corina34_cracker 3.40 0067  02.08.2006

@<TRIPOS>MOLECULE
ASD01670069
  80   84    0    0    0
SMALL
NO_CHARGES


@<TRIPOS>ATOM
   1 C1             0.7482     1.6823    -1.1714 C.ar    
   2 C2             0.6131     0.3090    -1.2694 C.ar    
   3 C3             1.9284     2.2316    -0.7138 C.ar    
   4 C4             1.6588    -0.5227    -0.9095 C.ar    
   5 C5             4.1132    -5.5365     0.6663 C.ar    
   6 C6             8.0234     3.5755    -0.2276 C.ar    
   7 C7             6.3173     4.2089    -1.7863 C.ar    
   8 C8             5.7900     5.6329     2.2839 C.2     
   9 C9             4.8223     6.2751     0.1164 C.3     
  10 C10            3.6569    -6.8230     0.4291 C.ar    
  11 C11            8.9571     3.5749    -1.2457 C.ar    
  12 C12            7.2471     4.2097    -2.8079 C.ar    
  13 C13            5.5956     7.0102     2.8426 C.3     
  14 C14            5.0800     7.6923     0.5320 C.2     
  15 C15            2.9871     1.3984    -0.3496 C.ar    
  16 C16            3.7495    -4.9772    -1.6430 C.ar    
  17 C17            6.7048     3.8924    -0.4974 C.ar    
  18 C18            5.4471     5.3070     1.0752 C.2     
  19 C19            2.8440     0.0135    -0.4505 C.ar    
  20 C20            4.1620    -4.6154    -0.3564 C.ar    
  21 C21            3.2449    -7.1973    -0.8384 C.ar    
  22 C22            3.2884    -6.2770    -1.8830 C.ar    
  23 C23            8.5708     3.8925    -2.5397 C.ar    
  24 C24            5.4249     8.0202     1.7478 C.2     
  25 C25            2.9090    -1.4300     3.2181 C.2     
  26 C26            3.3808    -2.2959     2.3558 C.2     
  27 C27            4.2547     1.9801     0.1410 C.2     
  28 C28            3.7995    -3.9945    -2.7406 C.2     
  29 C29            2.1314    -8.0554    -2.5729 C.3     
  30 C30            9.0186     4.2299    -4.8501 C.3     
  31 C31            5.4649    10.2621     0.9636 C.3     
  32 C32            3.9816    -0.8938    -0.0585 C.3     
  33 C33            4.6592    -3.2181    -0.0893 C.3     
  34 C34            2.6383    -2.5615     1.0716 C.3     
  35 C35            5.6884     3.8923     0.6152 C.3     
  36 N36            4.4323     3.3160     0.1290 N.am    
  37 N37            3.5216    -2.2889    -0.0701 N.3     
  38 O38            4.8008    -3.8948    -3.4216 O.2     
  39 O39            5.1366     1.2534     0.5552 O.2     
  40 O40            2.7347    -3.2068    -2.9887 O.3     
  41 O41            2.7637    -8.3805    -1.3207 O.3     
  42 O42            2.8368    -6.8812    -3.0170 O.3     
  43 O43            9.4876     3.8931    -3.5430 O.3     
  44 O44            5.6373     9.3295     2.0325 O.3     
  45 H45           -0.0703     2.3261    -1.4578 H       
  46 H46           -0.3127    -0.1158    -1.6282 H       
  47 H47            2.0327     3.3038    -0.6381 H       
  48 H48            1.5467    -1.5940    -0.9877 H       
  49 H49            4.4282    -5.2531     1.6597 H       
  50 H50            8.3227     3.3239     0.7792 H       
  51 H51            5.2867     4.4561    -1.9945 H       
  52 H52            6.2394     4.8794     2.9137 H       
  53 H53            3.7465     6.1022     0.0844 H       
  54 H54            5.2390     6.1128    -0.8776 H       
  55 H55            3.6228    -7.5382     1.2377 H       
  56 H56            9.9870     3.3277    -1.0344 H       
  57 H57            6.9438     4.4566    -3.8146 H       
  58 H58            4.7087     7.0169     3.4762 H       
  59 H59            6.4648     7.2780     3.4434 H       
  60 H60            4.9764     8.4747    -0.2053 H       
  61 H61            1.9879    -0.9064     3.0087 H       
  62 H62            3.4411    -1.2396     4.1384 H       
  63 H63            4.3019    -2.8195     2.5652 H       
  64 H64            2.2552    -8.8694    -3.2872 H       
  65 H65            1.0748    -7.8340    -2.4223 H       
  66 H66            9.8493     4.1925    -5.5549 H       
  67 H67            8.2510     3.5186    -5.1552 H       
  68 H68            8.5979     5.2353    -4.8373 H       
  69 H69            6.1571    10.0218     0.1566 H       
  70 H70            4.4413    10.2052     0.5932 H       
  71 H71            5.6648    11.2706     1.3255 H       
  72 H72            4.8014    -0.7756    -0.7671 H       
  73 H73            4.3259    -0.6331     0.9423 H       
  74 H74            5.1666    -3.1912     0.8750 H       
  75 H75            5.3555    -2.9239    -0.8746 H       
  76 H76            2.3207    -3.6039     1.0444 H       
  77 H77            1.7635    -1.9136     1.0170 H       
  78 H78            6.0622     3.2979     1.4489 H       
  79 H79            3.7285     3.8959    -0.2015 H       
  80 H80            2.8146    -2.5777    -3.7188 H       
@<TRIPOS>BOND
   1    1    2 ar
   2    1    3 ar
   3    1   45 1
   4    2    4 ar
   5    2   46 1
   6    3   15 ar
   7    3   47 1
   8    4   19 ar
   9    4   48 1
  10    5   10 ar
  11    5   20 ar
  12    5   49 1
  13    6   11 ar
  14    6   17 ar
  15    6   50 1
  16    7   12 ar
  17    7   17 ar
  18    7   51 1
  19    8   13 1
  20    8   18 2
  21    8   52 1
  22    9   14 1
  23    9   18 1
  24    9   53 1
  25    9   54 1
  26   10   21 ar
  27   10   55 1
  28   11   23 ar
  29   11   56 1
  30   12   23 ar
  31   12   57 1
  32   13   24 1
  33   13   58 1
  34   13   59 1
  35   14   24 2
  36   14   60 1
  37   15   19 ar
  38   15   27 1
  39   16   20 ar
  40   16   22 ar
  41   16   28 1
  42   17   35 1
  43   18   35 1
  44   19   32 1
  45   20   33 1
  46   21   22 ar
  47   21   41 1
  48   22   42 1
  49   23   43 1
  50   24   44 1
  51   25   26 2
  52   25   61 1
  53   25   62 1
  54   26   34 1
  55   26   63 1
  56   27   36 am
  57   27   39 2
  58   28   38 2
  59   28   40 1
  60   29   41 1
  61   29   42 1
  62   29   64 1
  63   29   65 1
  64   30   43 1
  65   30   66 1
  66   30   67 1
  67   30   68 1
  68   31   44 1
  69   31   69 1
  70   31   70 1
  71   31   71 1
  72   32   37 1
  73   32   72 1
  74   32   73 1
  75   33   37 1
  76   33   74 1
  77   33   75 1
  78   34   37 1
  79   34   76 1
  80   34   77 1
  81   35   36 1
  82   35   78 1
  83   36   79 1
  84   40   80 1

#	End of record

