#	Name: ASD01912408
#	Creating user name:	WinNT
#	Creation time:	15. 06. 2019 19:59

#	Modifying user name:	WinNT
#	Modification time:	15. 06. 2019 19:59

#	Program:	/corina/corina34_cracker 3.40 0067  02.08.2006

@<TRIPOS>MOLECULE
ASD01912408
  42   44    0    0    0
SMALL
NO_CHARGES


@<TRIPOS>ATOM
   1 C1            -0.0334     1.3988    -0.0430 C.2     
   2 C2            -0.0191    -0.0329    -0.0661 C.1     
   3 C3            -0.0075    -1.2067    -0.0851 C.1     
   4 O4             1.0122     2.0165    -0.0438 O.2     
   5 C5             0.0068    -2.6384    -0.1082 C.ar    
   6 C6            -1.1958    -3.3540    -0.1073 C.ar    
   7 C7            -1.1734    -4.7322    -0.1296 C.ar    
   8 C8             0.0343    -5.4083    -0.1528 C.ar    
   9 C9             1.2283    -4.7080    -0.1538 C.ar    
  10 C10            1.2232    -3.3294    -0.1375 C.ar    
  11 N11           -2.9142     4.4281    -0.8236 N.3     
  12 C12           -2.4676     4.2896     0.5684 C.3     
  13 C13           -1.1455     3.5197     0.6072 C.3     
  14 C14           -1.3459     2.1391    -0.0240 C.3     
  15 C15           -1.8572     2.3110    -1.4570 C.3     
  16 C16           -3.1586     3.1160    -1.4359 C.3     
  17 C17           -4.0432     5.2346    -0.9067 C.ar    
  18 C18           -3.9728     6.4527    -1.5755 C.ar    
  19 C19           -5.1039     7.2449    -1.6508 C.ar    
  20 C20           -6.2722     6.7910    -1.0526 C.ar    
  21 C21           -6.2707     5.5720    -0.4052 C.ar    
  22 N22           -5.1775     4.8345    -0.3533 N.ar    
  23 N23           -2.8118     6.8574    -2.1448 N.pl3   
  24 O24           -2.7836     7.8751    -2.8134 O.2     
  25 O25           -1.7962     6.2034    -1.9881 O.2     
  26 H26           -2.1389    -2.8280    -0.0889 H       
  27 H27           -2.1006    -5.2860    -0.1287 H       
  28 H28            0.0450    -6.4881    -0.1698 H       
  29 H29            2.1663    -5.2429    -0.1716 H       
  30 H30            2.1556    -2.7844    -0.1428 H       
  31 H31           -2.3249     5.2785     1.0041 H       
  32 H32           -3.2209     3.7467     1.1392 H       
  33 H33           -0.3880     4.0690     0.0481 H       
  34 H34           -0.8223     3.4035     1.6416 H       
  35 H35           -2.0741     1.5746     0.5584 H       
  36 H36           -1.1109     2.8412    -2.0485 H       
  37 H37           -2.0424     1.3312    -1.8972 H       
  38 H38           -3.9087     2.5785    -0.8557 H       
  39 H39           -3.5178     3.2524    -2.4559 H       
  40 H40           -5.0791     8.1954    -2.1631 H       
  41 H41           -7.1726     7.3860    -1.0931 H       
  42 H42           -7.1769     5.2154     0.0617 H       
@<TRIPOS>BOND
   1    1    2 1
   2    1    4 2
   3    1   14 1
   4    2    3 3
   5    3    5 1
   6    5    6 ar
   7    5   10 ar
   8    6    7 ar
   9    6   26 1
  10    7    8 ar
  11    7   27 1
  12    8    9 ar
  13    8   28 1
  14    9   10 ar
  15    9   29 1
  16   10   30 1
  17   11   12 1
  18   11   16 1
  19   11   17 1
  20   12   13 1
  21   12   31 1
  22   12   32 1
  23   13   14 1
  24   13   33 1
  25   13   34 1
  26   14   15 1
  27   14   35 1
  28   15   16 1
  29   15   36 1
  30   15   37 1
  31   16   38 1
  32   16   39 1
  33   17   18 ar
  34   17   22 ar
  35   18   19 ar
  36   18   23 1
  37   19   20 ar
  38   19   40 1
  39   20   21 ar
  40   20   41 1
  41   21   22 ar
  42   21   42 1
  43   23   24 2
  44   23   25 2

#	End of record

