#	Name: ASD03730797
#	Creating user name:	WinNT
#	Creation time:	15. 06. 2019 20:44

#	Modifying user name:	WinNT
#	Modification time:	15. 06. 2019 20:44

#	Program:	/corina/corina34_cracker 3.40 0067  02.08.2006

@<TRIPOS>MOLECULE
ASD03730797
  53   57    0    0    0
SMALL
NO_CHARGES


@<TRIPOS>ATOM
   1 O1            -0.0175     1.4360     0.0099 O.3     
   2 C2             0.0021    -0.0041     0.0020 C.3     
   3 C3             1.3443    -0.3164    -0.6736 C.3     
   4 C4             2.1584     0.9221    -0.4112 C.ar    
   5 C5             1.2612     1.9063     0.0003 C.ar    
   6 C6             1.7465     3.1703     0.3294 C.ar    
   7 C7             3.0920     3.4475     0.2397 C.ar    
   8 C8             3.9835     2.4622    -0.1814 C.ar    
   9 C9             3.5029     1.1937    -0.5060 C.ar    
  10 N10            2.1539    -2.4047    -1.1296 N.am    
  11 C11            1.9834    -1.5493    -0.1019 C.2     
  12 C12            1.1833    -0.5947    -2.1386 C.ar    
  13 C13            0.6717     0.1271    -3.1938 C.ar    
  14 C14            0.6623    -0.4168    -4.4659 C.ar    
  15 C15            1.1675    -1.6871    -4.6751 C.ar    
  16 C16            1.6809    -2.4143    -3.6215 C.ar    
  17 C17            1.6948    -1.8745    -2.3377 C.ar    
  18 O18            2.2872    -1.7380     1.0570 O.2     
  19 C19            2.7517    -3.7354    -0.9953 C.3     
  20 O20            1.2401    -5.1026     0.5173 O.3     
  21 C21            1.6711    -4.7444    -0.7032 C.2     
  22 C22            0.9743    -5.4387    -1.6207 C.2     
  23 C23            0.0710    -6.2631    -0.9113 C.2     
  24 C24            0.2698    -6.0233     0.3972 C.2     
  25 C25           -0.4707    -6.6769     1.5354 C.3     
  26 F26            0.2054    -7.8376     1.9262 F       
  27 F27           -0.5401    -5.7913     2.6163 F       
  28 F28           -1.7650    -7.0084     1.1205 F       
  29 C29            7.2846     4.2616    -0.0704 C.ar    
  30 C30            5.9296     4.0269     0.0385 C.ar    
  31 C31            5.4327     2.7604    -0.2834 C.ar    
  32 C32            6.3392     1.7826    -0.7038 C.ar    
  33 C33            7.6787     2.1023    -0.7841 C.ar    
  34 N34            8.1066     3.3106    -0.4713 N.ar    
  35 H35           -0.0200    -0.3968     1.0186 H       
  36 H36           -0.8274    -0.3990    -0.5845 H       
  37 H37            1.0618     3.9386     0.6570 H       
  38 H38            3.4577     4.4309     0.4960 H       
  39 H39            4.1872     0.4245    -0.8323 H       
  40 H40            0.2770     1.1187    -3.0282 H       
  41 H41            0.2611     0.1492    -5.2935 H       
  42 H42            1.1597    -2.1119    -5.6680 H       
  43 H43            2.0736    -3.4057    -3.7926 H       
  44 H44            3.2566    -4.0023    -1.9237 H       
  45 H45            3.4732    -3.7289    -0.1783 H       
  46 H46            1.0835    -5.3776    -2.6935 H       
  47 H47           -0.6422    -6.9528    -1.3382 H       
  48 H48            7.6773     5.2381     0.1718 H       
  49 H49            5.2625     4.8099     0.3676 H       
  50 H50            5.9959     0.7916    -0.9614 H       
  51 H51            8.3866     1.3536    -1.1078 H       
  52 Cl52          13.3866    10.2381     7.6163 Cl      
  53 H53           13.3866    11.6081     7.6163 H       
@<TRIPOS>BOND
   1    1    2 1
   2    1    5 1
   3    2    3 1
   4    2   35 1
   5    2   36 1
   6    3    4 1
   7    3   11 1
   8    3   12 1
   9    4    5 ar
  10    4    9 ar
  11    5    6 ar
  12    6    7 ar
  13    6   37 1
  14    7    8 ar
  15    7   38 1
  16    8    9 ar
  17    8   31 1
  18    9   39 1
  19   10   11 am
  20   10   17 1
  21   10   19 1
  22   11   18 2
  23   12   13 ar
  24   12   17 ar
  25   13   14 ar
  26   13   40 1
  27   14   15 ar
  28   14   41 1
  29   15   16 ar
  30   15   42 1
  31   16   17 ar
  32   16   43 1
  33   19   21 1
  34   19   44 1
  35   19   45 1
  36   20   21 1
  37   20   24 1
  38   21   22 2
  39   22   23 1
  40   22   46 1
  41   23   24 2
  42   23   47 1
  43   24   25 1
  44   25   26 1
  45   25   27 1
  46   25   28 1
  47   29   30 ar
  48   29   34 ar
  49   29   48 1
  50   30   31 ar
  51   30   49 1
  52   31   32 ar
  53   32   33 ar
  54   32   50 1
  55   33   34 ar
  56   33   51 1
  57   52   53 1

#	End of record

