#	Name: ASD06710020
#	Creating user name:	WinNT
#	Creation time:	15. 06. 2019 21:08

#	Modifying user name:	WinNT
#	Modification time:	15. 06. 2019 21:08

#	Program:	/corina/corina34_cracker 3.40 0067  02.08.2006

@<TRIPOS>MOLECULE
ASD06710020
  54   55    0    0    0
SMALL
NO_CHARGES


@<TRIPOS>ATOM
   1 C1            -0.0212     1.5202     0.1328 C.3     
   2 C2            -1.4307    -0.5277    -0.1159 C.3     
   3 C3             2.8495    -0.4653    -2.4327 C.ar    
   4 C4             2.2111    -1.1003    -3.4881 C.ar    
   5 C5             0.8543    -1.3787    -3.4086 C.ar    
   6 C6             0.1425    -1.0236    -2.2792 C.ar    
   7 C7             0.7811    -0.3908    -1.2287 C.ar    
   8 C8             2.1331    -0.1119    -1.3056 C.ar    
   9 C9             0.8854    -1.9651     1.2814 C.ar    
  10 C10            0.6572    -0.6028     1.2200 C.ar    
  11 C11            0.0021    -0.0041     0.0020 C.3     
  12 C12            1.4858    -2.5165     2.3967 C.ar    
  13 C13            1.8598    -1.7020     3.4557 C.ar    
  14 C14            1.6292    -0.3355     3.3918 C.ar    
  15 C15            1.0285     0.2110     2.2743 C.ar    
  16 O16            2.9135    -1.4487    -4.5981 O.3     
  17 O17            2.4501    -2.2420     4.5542 O.3     
  18 C18            2.1911    -2.0994    -5.6453 C.3     
  19 C19            3.1416    -2.4119    -6.8028 C.3     
  20 C20            2.3982    -3.2181    -7.8697 C.3     
  21 O21            3.6156    -1.1904    -7.3730 O.3     
  22 C22            2.8085    -1.3435     5.6060 C.3     
  23 C23            3.4554    -2.1282     6.7490 C.3     
  24 O24            4.6878    -2.6952     6.2999 O.3     
  25 O25            3.3137    -3.6096    -8.8948 O.3     
  26 C26            3.7254    -1.1873     7.9249 C.3     
  27 I27            4.4756    -2.3268     9.6021 I       
  28 H28            0.9995     1.8932     0.2168 H       
  29 H29           -0.4950     1.9532    -0.7481 H       
  30 H30           -0.5846     1.7999     1.0230 H       
  31 H31           -1.9941    -0.2480     0.7743 H       
  32 H32           -1.9045    -0.0947    -0.9968 H       
  33 H33           -1.4141    -1.6136    -0.2090 H       
  34 H34            3.9066    -0.2515    -2.4903 H       
  35 H35            0.3550    -1.8726    -4.2290 H       
  36 H36           -0.9137    -1.2401    -2.2168 H       
  37 H37            2.6297     0.3825    -0.4837 H       
  38 H38            0.5900    -2.5993     0.4586 H       
  39 H39            1.6636    -3.5807     2.4444 H       
  40 H40            1.9191     0.3006     4.2151 H       
  41 H41            0.8492     1.2748     2.2239 H       
  42 H42            1.7609    -3.0271    -5.2678 H       
  43 H43            1.3931    -1.4455    -5.9969 H       
  44 H44            3.9868    -2.9920    -6.4323 H       
  45 H45            1.9608    -4.1067    -7.4145 H       
  46 H46            1.6078    -2.6053    -8.3031 H       
  47 H47            2.9159    -0.6225    -7.7237 H       
  48 H48            3.5145    -0.6043     5.2276 H       
  49 H49            1.9149    -0.8381     5.9724 H       
  50 H50            2.7838    -2.9252     7.0682 H       
  51 H51            5.3349    -2.0422     6.0000 H       
  52 H52            2.9103    -4.1255    -9.6063 H       
  53 H53            4.4651    -0.4424     7.6317 H       
  54 H54            2.7997    -0.6875     8.2102 H       
@<TRIPOS>BOND
   1    1   11 1
   2    1   28 1
   3    1   29 1
   4    1   30 1
   5    2   11 1
   6    2   31 1
   7    2   32 1
   8    2   33 1
   9    3    4 ar
  10    3    8 ar
  11    3   34 1
  12    4    5 ar
  13    4   16 1
  14    5    6 ar
  15    5   35 1
  16    6    7 ar
  17    6   36 1
  18    7    8 ar
  19    7   11 1
  20    8   37 1
  21    9   10 ar
  22    9   12 ar
  23    9   38 1
  24   10   11 1
  25   10   15 ar
  26   12   13 ar
  27   12   39 1
  28   13   14 ar
  29   13   17 1
  30   14   15 ar
  31   14   40 1
  32   15   41 1
  33   16   18 1
  34   17   22 1
  35   18   19 1
  36   18   42 1
  37   18   43 1
  38   19   20 1
  39   19   21 1
  40   19   44 1
  41   20   25 1
  42   20   45 1
  43   20   46 1
  44   21   47 1
  45   22   23 1
  46   22   48 1
  47   22   49 1
  48   23   26 1
  49   23   24 1
  50   23   50 1
  51   24   51 1
  52   25   52 1
  53   26   27 1
  54   26   53 1
  55   26   54 1

#	End of record

