#	Name: ASD08178264
#	Creating user name:	WinNT
#	Creation time:	15. 06. 2019 21:18

#	Modifying user name:	WinNT
#	Modification time:	15. 06. 2019 21:18

#	Program:	/corina/corina34_cracker 3.40 0067  02.08.2006

@<TRIPOS>MOLECULE
ASD08178264
  63   66    0    0    0
SMALL
NO_CHARGES


@<TRIPOS>ATOM
   1 N1            -0.0168     1.3863     0.0097 N.pl3   
   2 C2             0.0021    -0.0041     0.0020 C.ar    
   3 C3             1.2170    -0.6881    -0.0133 C.ar    
   4 N4            -1.1345    -0.6854     0.0148 N.ar    
   5 N5            -1.1599    -1.9686     0.0088 N.ar    
   6 C6            -0.0597    -2.6944    -0.0105 C.ar    
   7 C7             1.1814    -2.0736    -0.0199 C.ar    
   8 C8            -0.1496    -4.1987    -0.0166 C.3     
   9 C9            -0.9891    -4.6643     1.1747 C.3     
  10 C10           -1.0804    -6.1916     1.1684 C.3     
  11 C11           -1.9199    -6.6572     2.3598 C.3     
  12 C12           -2.0099    -8.1615     2.3536 C.2     
  13 N13           -1.1920    -8.9782     2.9383 N.2     
  14 N14           -1.4395   -10.2100     2.8153 N.2     
  15 C15           -2.4828   -10.5489     2.1197 C.2     
  16 S16           -3.2522    -9.1262     1.5551 S.3     
  17 N17           -2.9080   -11.8509     1.8781 N.am    
  18 C18           -2.2166   -12.8907     2.3853 C.2     
  19 C19           -2.6774   -14.3014     2.1235 C.3     
  20 O20           -1.2235   -12.6910     3.0523 O.2     
  21 C21           -1.7385   -15.2695     2.7961 C.ar    
  22 C22           -1.9800   -15.6775     4.0943 C.ar    
  23 C23           -1.1186   -16.5656     4.7114 C.ar    
  24 C24           -0.0162   -17.0457     4.0299 C.ar    
  25 C25            0.2249   -16.6382     2.7309 C.ar    
  26 C26           -0.6386   -15.7538     2.1126 C.ar    
  27 C27            1.4272   -17.1613     1.9880 C.3     
  28 N28            1.0649   -18.3892     1.2757 N.am    
  29 C29            1.9880   -19.0378     0.5384 C.2     
  30 C30            1.6224   -20.2769    -0.1805 C.ar    
  31 C31            2.5760   -20.9511    -0.9449 C.ar    
  32 O32            3.1211   -18.6041     0.4644 O.2     
  33 C33            2.2282   -22.1068    -1.6133 C.ar    
  34 C34            0.9376   -22.5978    -1.5270 C.ar    
  35 C35           -0.0124   -21.9343    -0.7710 C.ar    
  36 C36            0.3237   -20.7808    -0.0930 C.ar    
  37 H37            0.8166     1.8827     0.0044 H       
  38 H38           -0.8633     1.8598     0.0163 H       
  39 H39            2.1563    -0.1550    -0.0201 H       
  40 H40            2.0927    -2.6531    -0.0356 H       
  41 H41           -0.6180    -4.5309    -0.9431 H       
  42 H42            0.8518    -4.6229     0.0566 H       
  43 H43           -0.5207    -4.3322     2.1012 H       
  44 H44           -1.9905    -4.2402     1.1014 H       
  45 H45           -1.5488    -6.5238     0.2419 H       
  46 H46           -0.0790    -6.6158     1.2417 H       
  47 H47           -1.4515    -6.3251     3.2863 H       
  48 H48           -2.9213    -6.2331     2.2865 H       
  49 H49           -3.7022   -12.0106     1.3446 H       
  50 H50           -3.6833   -14.4348     2.5216 H       
  51 H51           -2.6838   -14.4882     1.0497 H       
  52 H52           -2.8414   -15.3024     4.6269 H       
  53 H53           -1.3070   -16.8839     5.7261 H       
  54 H54            0.6571   -17.7389     4.5122 H       
  55 H55           -0.4502   -15.4355     1.0979 H       
  56 H56            1.7661   -16.4125     1.2721 H       
  57 H57            2.2275   -17.3750     2.6965 H       
  58 H58            0.1607   -18.7353     1.3347 H       
  59 H59            3.5837   -20.5687    -1.0134 H       
  60 H60            2.9650   -22.6292    -2.2054 H       
  61 H61            0.6704   -23.5028    -2.0525 H       
  62 H62           -1.0182   -22.3228    -0.7077 H       
  63 H63           -0.4187   -20.2640     0.4971 H       
@<TRIPOS>BOND
   1    1    2 1
   2    1   37 1
   3    1   38 1
   4    2    3 ar
   5    2    4 ar
   6    3    7 ar
   7    3   39 1
   8    4    5 ar
   9    5    6 ar
  10    6    7 ar
  11    6    8 1
  12    7   40 1
  13    8    9 1
  14    8   41 1
  15    8   42 1
  16    9   10 1
  17    9   43 1
  18    9   44 1
  19   10   11 1
  20   10   45 1
  21   10   46 1
  22   11   12 1
  23   11   47 1
  24   11   48 1
  25   12   13 2
  26   12   16 1
  27   13   14 1
  28   14   15 2
  29   15   16 1
  30   15   17 1
  31   17   18 am
  32   17   49 1
  33   18   19 1
  34   18   20 2
  35   19   21 1
  36   19   50 1
  37   19   51 1
  38   21   22 ar
  39   21   26 ar
  40   22   23 ar
  41   22   52 1
  42   23   24 ar
  43   23   53 1
  44   24   25 ar
  45   24   54 1
  46   25   26 ar
  47   25   27 1
  48   26   55 1
  49   27   28 1
  50   27   56 1
  51   27   57 1
  52   28   29 am
  53   28   58 1
  54   29   30 1
  55   29   32 2
  56   30   31 ar
  57   30   36 ar
  58   31   33 ar
  59   31   59 1
  60   33   34 ar
  61   33   60 1
  62   34   35 ar
  63   34   61 1
  64   35   36 ar
  65   35   62 1
  66   36   63 1

#	End of record

