#	Name: ASD09740593
#	Creating user name:	WinNT
#	Creation time:	15. 06. 2019 21:23

#	Modifying user name:	WinNT
#	Modification time:	15. 06. 2019 21:23

#	Program:	/corina/corina34_cracker 3.40 0067  02.08.2006

@<TRIPOS>MOLECULE
ASD09740593
  70   74    0    0    0
SMALL
NO_CHARGES


@<TRIPOS>ATOM
   1 N1            -0.0876     1.3324    -0.0179 N.2     
   2 C2            -0.1184     0.0237    -0.0597 C.2     
   3 C3             1.0839     1.8984     0.0649 C.2     
   4 S4             2.3293     0.6530     0.0963 S.3     
   5 C5             1.0842    -0.5899    -0.0113 C.2     
   6 C6             1.3284     3.3544     0.1225 C.ar    
   7 C7             0.2560     4.2425     0.0895 C.ar    
   8 C8             2.6359     3.8406     0.2158 C.ar    
   9 C9             2.8697     5.1978     0.2703 C.ar    
  10 C10            1.8093     6.0918     0.2334 C.ar    
  11 C11            0.4926     5.6151     0.1446 C.ar    
  12 O12            2.0452     7.4266     0.2882 O.3     
  13 C13            3.3965     7.8382     0.5042 C.3     
  14 C14            4.1363     7.8825    -0.8343 C.3     
  15 C15            3.4102     9.2294     1.1408 C.3     
  16 C16           -0.6038     6.5355     0.1059 C.1     
  17 N17           -1.4736     7.2656     0.0751 N.1     
  18 C18            1.3156    -2.0492    -0.0432 C.ar    
  19 C19            2.2434    -2.5914    -0.9372 C.ar    
  20 C20            2.4547    -3.9547    -0.9619 C.ar    
  21 C21            1.7475    -4.7800    -0.1015 C.ar    
  22 C22            0.8285    -4.2487     0.7843 C.ar    
  23 C23            0.6124    -2.8870     0.8229 C.ar    
  24 C24            3.1282    -1.9161    -1.9628 C.3     
  25 C25            4.2124    -2.9586    -2.3093 C.3     
  26 C26            3.4969    -4.2923    -2.0069 C.3     
  27 N27            2.8540    -4.8101    -3.2172 N.am    
  28 S28            3.3762    -6.2308    -3.8890 S.o2    
  29 O29            2.5566    -6.3973    -5.0378 O.2     
  30 O30            4.7823    -6.0652    -4.0100 O.2     
  31 C31            2.9885    -7.4903    -2.6425 C.3     
  32 C32            3.5380    -8.8440    -3.0972 C.3     
  33 N33            3.2240    -9.8639    -2.0877 N.3     
  34 C34            1.7743   -10.0929    -2.0032 C.3     
  35 C35            3.9343   -11.1200    -2.3692 C.3     
  36 C36            3.6264   -12.1330    -1.2634 C.3     
  37 O37            2.2112   -12.3193    -1.1750 O.3     
  38 C38            1.4881   -11.1162    -0.9010 C.3     
  39 H39           -1.0441    -0.5284    -0.1280 H       
  40 H40           -0.7551     3.8692     0.0212 H       
  41 H41            3.4658     3.1501     0.2457 H       
  42 H42            3.8821     5.5668     0.3424 H       
  43 H43            3.8903     7.1295     1.1690 H       
  44 H44            5.1670     8.1965    -0.6695 H       
  45 H45            4.1265     6.8914    -1.2878 H       
  46 H46            3.6425     8.5912    -1.4991 H       
  47 H47            2.8832     9.1978     2.0944 H       
  48 H48            4.4409     9.5434     1.3056 H       
  49 H49            2.9164     9.9381     0.4760 H       
  50 H50            1.9155    -5.8466    -0.1235 H       
  51 H51            0.2823    -4.9004     1.4502 H       
  52 H52           -0.1052    -2.4716     1.5150 H       
  53 H53            2.5507    -1.6613    -2.8514 H       
  54 H54            3.5849    -1.0221    -1.5383 H       
  55 H55            4.4875    -2.8964    -3.3622 H       
  56 H56            5.0873    -2.8347    -1.6711 H       
  57 H57            4.2055    -5.0208    -1.6129 H       
  58 H58            2.1225    -4.3208    -3.6251 H       
  59 H59            3.4450    -7.2136    -1.6921 H       
  60 H60            1.9077    -7.5596    -2.5199 H       
  61 H61            3.0815    -9.1207    -4.0475 H       
  62 H62            4.6188    -8.7747    -3.2198 H       
  63 H63            1.2707    -9.1550    -1.7688 H       
  64 H64            1.4098   -10.4739    -2.9572 H       
  65 H65            3.6043   -11.5174    -3.3291 H       
  66 H66            5.0074   -10.9318    -2.4020 H       
  67 H67            4.1048   -13.0840    -1.4975 H       
  68 H68            4.0044   -11.7592    -0.3118 H       
  69 H69            1.8039   -10.7128     0.0611 H       
  70 H70            0.4200   -11.3319    -0.8731 H       
@<TRIPOS>BOND
   1    1    2 1
   2    1    3 2
   3    2    5 2
   4    2   39 1
   5    3    4 1
   6    3    6 1
   7    4    5 1
   8    5   18 1
   9    6    7 ar
  10    6    8 ar
  11    7   11 ar
  12    7   40 1
  13    8    9 ar
  14    8   41 1
  15    9   10 ar
  16    9   42 1
  17   10   11 ar
  18   10   12 1
  19   11   16 1
  20   12   13 1
  21   13   14 1
  22   13   15 1
  23   13   43 1
  24   14   44 1
  25   14   45 1
  26   14   46 1
  27   15   47 1
  28   15   48 1
  29   15   49 1
  30   16   17 3
  31   18   19 ar
  32   18   23 ar
  33   19   20 ar
  34   19   24 1
  35   20   21 ar
  36   20   26 1
  37   21   22 ar
  38   21   50 1
  39   22   23 ar
  40   22   51 1
  41   23   52 1
  42   24   25 1
  43   24   53 1
  44   24   54 1
  45   25   26 1
  46   25   55 1
  47   25   56 1
  48   26   27 1
  49   26   57 1
  50   27   28 am
  51   27   58 1
  52   28   29 2
  53   28   30 2
  54   28   31 1
  55   31   32 1
  56   31   59 1
  57   31   60 1
  58   32   33 1
  59   32   61 1
  60   32   62 1
  61   33   35 1
  62   33   34 1
  63   34   38 1
  64   34   63 1
  65   34   64 1
  66   35   36 1
  67   35   65 1
  68   35   66 1
  69   36   37 1
  70   36   67 1
  71   36   68 1
  72   37   38 1
  73   38   69 1
  74   38   70 1

#	End of record

