#	Name: ASD01911448
#	Creating user name:	WinNT
#	Creation time:	15. 06. 2019 19:57

#	Modifying user name:	WinNT
#	Modification time:	15. 06. 2019 19:57

#	Program:	/corina/corina34_cracker 3.40 0067  02.08.2006

@<TRIPOS>MOLECULE
ASD01911448
  26   27    0    0    0
SMALL
NO_CHARGES


@<TRIPOS>ATOM
   1 C1            -0.0188     1.5367     0.0075 C.3     
   2 C2             0.0020    -0.0040    -0.0037 C.3     
   3 N3             1.4352    -0.3349    -0.0134 N.am    
   4 O4             1.3899     1.9085     0.0030 O.3     
   5 C5             1.9705    -1.6234    -0.0262 C.ar    
   6 C6             1.1235    -2.7236     0.0806 C.ar    
   7 C7             1.6690    -3.9966     0.0666 C.ar    
   8 C8             3.0467    -4.1254    -0.0542 C.ar    
   9 C9             3.8256    -2.9896    -0.1559 C.ar    
  10 N10            3.2776    -1.7891    -0.1450 N.ar    
  11 I11            3.9339    -6.0230    -0.0812 I       
  12 F12           -0.2115    -2.5516     0.1968 F       
  13 C13           -0.7191     2.0727    -1.2428 C.3     
  14 C14           -0.7062     2.0546     1.2725 C.3     
  15 C15            2.1430     0.8030    -0.0089 C.2     
  16 O16            3.3578     0.8282    -0.0145 O.2     
  17 H17           -0.4762    -0.4000     0.8922 H       
  18 H18           -0.4854    -0.3870    -0.9003 H       
  19 H19            1.0376    -4.8691     0.1480 H       
  20 H20            4.8973    -3.0853    -0.2496 H       
  21 H21           -1.7449     1.7051    -1.2705 H       
  22 H22           -0.7242     3.1624    -1.2174 H       
  23 H23           -0.1871     1.7325    -2.1312 H       
  24 H24           -0.1651     1.7016     2.1504 H       
  25 H25           -0.7115     3.1445     1.2628 H       
  26 H26           -1.7317     1.6866     1.3054 H       
@<TRIPOS>BOND
   1    1    2 1
   2    1    4 1
   3    1   13 1
   4    1   14 1
   5    2    3 1
   6    2   17 1
   7    2   18 1
   8    3    5 1
   9    3   15 am
  10    4   15 1
  11    5    6 ar
  12    5   10 ar
  13    6    7 ar
  14    6   12 1
  15    7    8 ar
  16    7   19 1
  17    8    9 ar
  18    8   11 1
  19    9   10 ar
  20    9   20 1
  21   13   21 1
  22   13   22 1
  23   13   23 1
  24   14   24 1
  25   14   25 1
  26   14   26 1
  27   15   16 2

#	End of record

