#	Name: ASD08170142
#	Creating user name:	WinNT
#	Creation time:	15. 06. 2019 21:17

#	Modifying user name:	WinNT
#	Modification time:	15. 06. 2019 21:17

#	Program:	/corina/corina34_cracker 3.40 0067  02.08.2006

@<TRIPOS>MOLECULE
ASD08170142
  66   67    0    0    0
SMALL
NO_CHARGES


@<TRIPOS>ATOM
   1 C1            -0.0184     1.5028     0.0103 C.3     
   2 C2             1.3963     3.5622     0.0079 C.3     
   3 C3             2.8317     4.0918    -0.0030 C.3     
   4 C4             2.8112     5.5986     0.0053 C.2     
   5 C5             0.0021    -0.0041     0.0020 C.2     
   6 S6             2.7835     6.6466    -1.4134 S.3     
   7 C7             2.7747     8.0128    -0.3799 C.2     
   8 N8             2.7920     7.6028     0.8524 N.2     
   9 N9             2.8052     6.3568     1.0554 N.2     
  10 S10            0.0026    -1.0367    -1.4281 S.3     
  11 N11            0.0281    -0.7735     1.0436 N.2     
  12 N12            0.0418    -2.0172     0.8270 N.2     
  13 C13            0.0310    -2.4140    -0.4097 C.2     
  14 N14            0.0424    -3.7376    -0.8365 N.am    
  15 C15            0.0674    -4.7369     0.0675 C.2     
  16 O16            0.0798    -4.4819     1.2531 O.2     
  17 N17            2.7527     9.3409    -0.7922 N.am    
  18 C18            2.7480    10.3305     0.1228 C.2     
  19 C19            2.7241    11.7696    -0.3239 C.3     
  20 O20            2.7628    10.0628     1.3056 O.2     
  21 C21            0.0798    -6.1712    -0.3949 C.3     
  22 C22            1.4789    -6.5555    -0.8025 C.ar    
  23 C23            1.4170     2.0324    -0.0006 C.3     
  24 C24            1.8301    -6.5694    -2.1394 C.ar    
  25 C25            4.1140    12.1952    -0.7216 C.ar    
  26 C26            4.4696    12.2331    -2.0569 C.ar    
  27 C27            5.7446    12.6234    -2.4218 C.ar    
  28 C28            6.6637    12.9763    -1.4514 C.ar    
  29 C29            6.3077    12.9392    -0.1162 C.ar    
  30 C30            5.0315    12.5530     0.2484 C.ar    
  31 C31            2.4125    -6.8886     0.1610 C.ar    
  32 C32            3.6958    -7.2411    -0.2128 C.ar    
  33 C33            4.0454    -7.2609    -1.5501 C.ar    
  34 C34            3.1134    -6.9219    -2.5132 C.ar    
  35 N35           -0.3681    -7.0425     0.6996 N.3     
  36 N36            2.2493    12.6166     0.7784 N.3     
  37 H37           -0.5455     1.8639    -0.8728 H       
  38 H38           -0.5286     1.8543     0.9071 H       
  39 H39            0.8861     3.9137     0.9047 H       
  40 H40            0.8691     3.9233    -0.8752 H       
  41 H41            3.3588     3.7307     0.8801 H       
  42 H42            3.3418     3.7402    -0.8998 H       
  43 H43            0.0325    -3.9415    -1.7848 H       
  44 H44            2.7409     9.5550    -1.7382 H       
  45 H45            2.0540    11.8741    -1.1771 H       
  46 H46           -0.5907    -6.2841    -1.2469 H       
  47 H47            1.9442     1.6713     0.8825 H       
  48 H48            1.9272     1.6808    -0.8974 H       
  49 H49            1.1018    -6.3052    -2.8918 H       
  50 H50            3.7516    11.9574    -2.8151 H       
  51 H51            6.0226    12.6524    -3.4650 H       
  52 H52            7.6600    13.2805    -1.7364 H       
  53 H53            7.0259    13.2145     0.6420 H       
  54 H54            4.7534    12.5240     1.2916 H       
  55 H55            2.1394    -6.8731     1.2058 H       
  56 H56            4.4254    -7.5007     0.5399 H       
  57 H57            5.0481    -7.5360    -1.8421 H       
  58 H58            3.3865    -6.9374    -3.5580 H       
  59 H59           -0.4303    -8.0025     0.3953 H       
  60 H60            0.2378    -6.9559     1.5018 H       
  61 H61            1.2955    12.3939     1.0206 H       
  62 H62            2.8544    12.5372     1.5820 H       
  63 Cl63          12.6600    18.2805     6.5820 Cl      
  64 H64           12.6600    19.6505     6.5820 H       
  65 Cl65          17.6600    24.6505    11.5820 Cl      
  66 H66           17.6600    26.0205    11.5820 H       
@<TRIPOS>BOND
   1    1    5 1
   2    1   23 1
   3    1   37 1
   4    1   38 1
   5    2    3 1
   6    2   23 1
   7    2   39 1
   8    2   40 1
   9    3    4 1
  10    3   41 1
  11    3   42 1
  12    4    6 1
  13    4    9 2
  14    5   10 1
  15    5   11 2
  16    6    7 1
  17    7    8 2
  18    7   17 1
  19    8    9 1
  20   10   13 1
  21   11   12 1
  22   12   13 2
  23   13   14 1
  24   14   15 am
  25   14   43 1
  26   15   16 2
  27   15   21 1
  28   17   18 am
  29   17   44 1
  30   18   19 1
  31   18   20 2
  32   19   25 1
  33   19   36 1
  34   19   45 1
  35   21   22 1
  36   21   35 1
  37   21   46 1
  38   22   24 ar
  39   22   31 ar
  40   23   47 1
  41   23   48 1
  42   24   34 ar
  43   24   49 1
  44   25   26 ar
  45   25   30 ar
  46   26   27 ar
  47   26   50 1
  48   27   28 ar
  49   27   51 1
  50   28   29 ar
  51   28   52 1
  52   29   30 ar
  53   29   53 1
  54   30   54 1
  55   31   32 ar
  56   31   55 1
  57   32   33 ar
  58   32   56 1
  59   33   34 ar
  60   33   57 1
  61   34   58 1
  62   35   59 1
  63   35   60 1
  64   36   61 1
  65   36   62 1
  66   63   64 1
  67   65   66 1

#	End of record

