#	Name: ASD01840421
#	Creating user name:	WinNT
#	Creation time:	15. 06. 2019 19:37

#	Modifying user name:	WinNT
#	Modification time:	15. 06. 2019 19:37

#	Program:	/corina/corina34_cracker 3.40 0067  02.08.2006

@<TRIPOS>MOLECULE
ASD01840421
  53   56    0    0    0
SMALL
NO_CHARGES


@<TRIPOS>ATOM
   1 C1             0.3612     2.1230    -0.1456 C.ar    
   2 C2             0.4099     0.7601    -0.3404 C.ar    
   3 N3             1.5342     0.0975    -0.1292 N.ar    
   4 N4             2.6118     0.6714     0.2575 N.ar    
   5 C5             1.5400     2.7758     0.2814 C.ar    
   6 C6             1.7845     4.1780     0.5640 C.2     
   7 C7             2.6812     1.9864     0.4774 C.ar    
   8 S8             4.0250     2.9907     1.0027 S.3     
   9 C9             3.0536     4.4489     0.9580 C.2     
  10 C10           -0.9098     2.8961    -0.3865 C.3     
  11 C11           -0.8227     0.0220    -0.7952 C.3     
  12 N12            0.8062     5.1555     0.4416 N.pl3   
  13 C13            3.5471     5.7824     1.2989 C.2     
  14 O14            2.8001     6.7419     1.2381 O.2     
  15 N15            4.8289     5.9494     1.6805 N.am    
  16 C16            5.3233     7.2855     2.0221 C.3     
  17 C17            6.5348     7.2001     2.9877 C.3     
  18 C18            7.3039     8.5052     2.6935 C.3     
  19 N19            6.9096     8.9507     1.3491 N.am    
  20 C20            5.9571     7.9752     0.7883 C.3     
  21 C21            7.3460    10.0666     0.7319 C.2     
  22 O22            7.0265    10.2886    -0.4197 O.2     
  23 C23            8.2133    11.0206     1.4556 C.ar    
  24 C24            8.7206    10.6908     2.7137 C.ar    
  25 C25            9.5299    11.5832     3.3860 C.ar    
  26 C26            9.8407    12.8050     2.8178 C.ar    
  27 C27            9.3406    13.1420     1.5675 C.ar    
  28 C28            8.5323    12.2511     0.8812 C.ar    
  29 O29            9.6486    14.3446     1.0143 O.3     
  30 C30           10.4917    15.2119     1.7752 C.3     
  31 H31           -1.4261     3.0507     0.5609 H       
  32 H32           -0.6689     3.8618    -0.8309 H       
  33 H33           -1.5535     2.3348    -1.0638 H       
  34 H34           -0.8480    -0.0062    -1.8846 H       
  35 H35           -0.8011    -0.9958    -0.4059 H       
  36 H36           -1.7105     0.5341    -0.4243 H       
  37 H37           -0.0806     4.9176     0.1288 H       
  38 H38            1.0095     6.0763     0.6690 H       
  39 H39            5.4240     5.1850     1.7289 H       
  40 H40            4.5276     7.8975     2.4468 H       
  41 H41            6.2003     7.1749     4.0248 H       
  42 H42            7.1499     6.3299     2.7586 H       
  43 H43            7.0390     9.2653     3.4285 H       
  44 H44            8.3773     8.3174     2.7219 H       
  45 H45            6.4810     7.2443     0.1725 H       
  46 H46            5.1914     8.4856     0.2040 H       
  47 H47            8.4792     9.7377     3.1606 H       
  48 H48            9.9217    11.3268     4.3592 H       
  49 H49           10.4745    13.4998     3.3488 H       
  50 H50            8.1462    12.5102    -0.0936 H       
  51 H51           10.0125    15.4414     2.7269 H       
  52 H52           11.4473    14.7206     1.9588 H       
  53 H53           10.6586    16.1351     1.2204 H       
@<TRIPOS>BOND
   1    1    2 ar
   2    1    5 ar
   3    1   10 1
   4    2   11 1
   5    2    3 ar
   6    3    4 ar
   7    4    7 ar
   8    5    7 ar
   9    5    6 1
  10    6    9 2
  11    6   12 1
  12    7    8 1
  13    8    9 1
  14    9   13 1
  15   10   31 1
  16   10   32 1
  17   10   33 1
  18   11   34 1
  19   11   35 1
  20   11   36 1
  21   12   37 1
  22   12   38 1
  23   13   14 2
  24   13   15 am
  25   15   16 1
  26   15   39 1
  27   16   17 1
  28   16   20 1
  29   16   40 1
  30   17   18 1
  31   17   41 1
  32   17   42 1
  33   18   19 1
  34   18   43 1
  35   18   44 1
  36   19   20 1
  37   19   21 am
  38   20   45 1
  39   20   46 1
  40   21   22 2
  41   21   23 1
  42   23   24 ar
  43   23   28 ar
  44   24   25 ar
  45   24   47 1
  46   25   26 ar
  47   25   48 1
  48   26   27 ar
  49   26   49 1
  50   27   28 ar
  51   27   29 1
  52   28   50 1
  53   29   30 1
  54   30   51 1
  55   30   52 1
  56   30   53 1

#	End of record

