#	Name: ASD02508012
#	Creating user name:	WinNT
#	Creation time:	15. 06. 2019 20:23

#	Modifying user name:	WinNT
#	Modification time:	15. 06. 2019 20:23

#	Program:	/corina/corina34_cracker 3.40 0067  02.08.2006

@<TRIPOS>MOLECULE
ASD02508012
  39   41    0    0    0
SMALL
NO_CHARGES


@<TRIPOS>ATOM
   1 C1            -0.0169     1.3937     0.0097 C.2     
   2 C2             0.0021    -0.0041     0.0020 C.2     
   3 C3            -1.2291    -0.6944     0.0101 C.2     
   4 N4            -2.3793     0.0088     0.0248 N.am    
   5 N5            -2.3709     1.4064     0.0322 N.2     
   6 C6            -1.2539     2.0777     0.0303 C.2     
   7 C7             1.3805     1.8290    -0.0013 C.2     
   8 C8             2.1611     0.6949    -0.0148 C.2     
   9 N9             1.3130    -0.4133    -0.0127 N.pl3   
  10 O10           -1.2522    -1.9149     0.0033 O.2     
  11 C11           -3.6593    -0.7039     0.0327 C.3     
  12 C12           -4.0914    -0.9602     1.4779 C.3     
  13 C13           -5.4281    -1.7045     1.4861 C.3     
  14 C14           -5.8602    -1.9609     2.9313 C.3     
  15 C15           -7.1970    -2.7051     2.9395 C.3     
  16 S16            2.4075     3.2578    -0.0039 S.3     
  17 C17            3.8556     2.2647    -0.0232 C.2     
  18 C18            3.5327     0.9776    -0.0271 C.2     
  19 C19            5.2649     2.7984    -0.0347 C.3     
  20 C20            1.7563    -1.8096    -0.0244 C.3     
  21 H21           -1.2734     3.1575     0.0362 H       
  22 H22           -4.4144    -0.1002    -0.4707 H       
  23 H23           -3.5486    -1.6553    -0.4876 H       
  24 H24           -3.3363    -1.5640     1.9812 H       
  25 H25           -4.2020    -0.0089     1.9982 H       
  26 H26           -6.1833    -1.1008     0.9828 H       
  27 H27           -5.3175    -2.6559     0.9658 H       
  28 H28           -5.1051    -2.5646     3.4346 H       
  29 H29           -5.9709    -1.0095     3.4516 H       
  30 H30           -7.9521    -2.1014     2.4362 H       
  31 H31           -7.0863    -3.6565     2.4192 H       
  32 H32           -7.5048    -2.8878     3.9691 H       
  33 H33            4.2800     0.1978    -0.0385 H       
  34 H34            5.2408     3.8882    -0.0287 H       
  35 H35            5.7956     2.4419     0.8481 H       
  36 H36            5.7776     2.4513    -0.9318 H       
  37 H37            1.8765    -2.1612     1.0003 H       
  38 H38            1.0130    -2.4226    -0.5341 H       
  39 H39            2.7094    -1.8838    -0.5481 H       
@<TRIPOS>BOND
   1    1    2 2
   2    1    7 1
   3    1    6 1
   4    2    3 1
   5    2    9 1
   6    3    4 am
   7    3   10 2
   8    4    5 1
   9    4   11 1
  10    5    6 2
  11    6   21 1
  12    7    8 2
  13    7   16 1
  14    8    9 1
  15    8   18 1
  16    9   20 1
  17   11   12 1
  18   11   22 1
  19   11   23 1
  20   12   13 1
  21   12   24 1
  22   12   25 1
  23   13   14 1
  24   13   26 1
  25   13   27 1
  26   14   15 1
  27   14   28 1
  28   14   29 1
  29   15   30 1
  30   15   31 1
  31   15   32 1
  32   16   17 1
  33   17   18 2
  34   17   19 1
  35   18   33 1
  36   19   34 1
  37   19   35 1
  38   19   36 1
  39   20   37 1
  40   20   38 1
  41   20   39 1

#	End of record

