#	Name: ASD01813916
#	Creating user name:	WinNT
#	Creation time:	15. 06. 2019 19:31

#	Modifying user name:	WinNT
#	Modification time:	15. 06. 2019 19:31

#	Program:	/corina/corina34_cracker 3.40 0067  02.08.2006

@<TRIPOS>MOLECULE
ASD01813916
  55   59    0    0    0
SMALL
NO_CHARGES


@<TRIPOS>ATOM
   1 C1            -0.0162     1.3436     0.0094 C.2     
   2 C2            -9.6982     9.9933    -5.7972 C.2     
   3 C3           -10.1966     9.0815    -4.8569 C.2     
   4 C4            -9.6565     9.0457    -3.6046 C.2     
   5 C5            -8.6098     9.9241    -3.2787 C.2     
   6 N6            -8.1428    10.8046    -4.2165 N.am    
   7 C7            -8.6899    10.8308    -5.4650 C.2     
   8 C8            -8.0529     9.8891    -1.9925 C.2     
   9 C9            -7.0357    10.7382    -1.6656 C.2     
  10 C10           -6.5579    11.6421    -2.6325 C.2     
  11 C11           -7.1390    11.6534    -3.9170 C.2     
  12 O12           -6.7309    12.4331    -4.7611 O.2     
  13 C13           -5.4676    12.5641    -2.3068 C.2     
  14 O14           -5.0142    13.4283    -3.2382 O.3     
  15 O15           -4.9709    12.5507    -1.1965 O.2     
  16 C16           -8.5779     8.9139    -0.9706 C.3     
  17 N17           -7.7502     7.7004    -0.9813 N.3     
  18 C18           -8.0792     6.8285     0.1551 C.3     
  19 C19           -7.2542     5.5427     0.0637 C.3     
  20 N20           -5.8240     5.8806     0.0597 N.3     
  21 C21           -5.4950     6.7525    -1.0766 C.3     
  22 C22           -6.3201     8.0383    -0.9852 C.3     
  23 C23           -5.0356     4.7247     0.0495 C.ar    
  24 C24           -3.6575     4.8300     0.0444 C.ar    
  25 C25           -2.8782     3.6704     0.0348 C.ar    
  26 C26           -3.4934     2.4051     0.0303 C.ar    
  27 C27           -4.8812     2.3215     0.0360 C.ar    
  28 C28           -5.6420     3.4690     0.0504 C.ar    
  29 C29           -1.4387     3.4120     0.0274 C.2     
  30 C30           -1.2989     2.0610     0.0194 C.2     
  31 O31           -2.5152     1.4770     0.0212 O.3     
  32 N32            0.0021    -0.0041     0.0020 N.am    
  33 O33            1.0290     1.9661     0.0028 O.2     
  34 H34          -10.1179    10.0241    -6.7918 H       
  35 H35          -11.0021     8.4125    -5.1215 H       
  36 H36          -10.0310     8.3484    -2.8698 H       
  37 H37           -8.3139    11.5297    -6.1975 H       
  38 H38           -6.6028    10.7168    -0.6764 H       
  39 H39           -4.2932    14.0172    -2.9766 H       
  40 H40           -8.5417     9.3698     0.0188 H       
  41 H41           -9.6082     8.6532    -1.2130 H       
  42 H42           -7.8480     7.3435     1.0875 H       
  43 H43           -9.1407     6.5821     0.1290 H       
  44 H44           -7.4752     4.9070     0.9211 H       
  45 H45           -7.5054     5.0139    -0.8558 H       
  46 H46           -4.4335     6.9989    -1.0505 H       
  47 H47           -5.7263     6.2375    -2.0090 H       
  48 H48           -6.0990     8.6740    -1.8427 H       
  49 H49           -6.0688     8.5671    -0.0658 H       
  50 H50           -3.1864     5.8018     0.0475 H       
  51 H51           -5.3632     1.3550     0.0326 H       
  52 H52           -6.7195     3.3958     0.0552 H       
  53 H53           -0.6471     4.1467     0.0279 H       
  54 H54            0.8486    -0.4776    -0.0086 H       
  55 H55           -0.8313    -0.5005     0.0073 H       
@<TRIPOS>BOND
   1    1   32 am
   2    1   33 2
   3    1   30 1
   4    2    3 1
   5    2    7 2
   6    2   34 1
   7    3    4 2
   8    3   35 1
   9    4    5 1
  10    4   36 1
  11    5    6 1
  12    5    8 2
  13    6    7 1
  14    6   11 am
  15    7   37 1
  16    8    9 1
  17    8   16 1
  18    9   10 2
  19    9   38 1
  20   10   11 1
  21   10   13 1
  22   11   12 2
  23   13   14 1
  24   13   15 2
  25   14   39 1
  26   16   17 1
  27   16   40 1
  28   16   41 1
  29   17   18 1
  30   17   22 1
  31   18   19 1
  32   18   42 1
  33   18   43 1
  34   19   20 1
  35   19   44 1
  36   19   45 1
  37   20   21 1
  38   20   23 1
  39   21   22 1
  40   21   46 1
  41   21   47 1
  42   22   48 1
  43   22   49 1
  44   23   24 ar
  45   23   28 ar
  46   24   25 ar
  47   24   50 1
  48   25   26 ar
  49   25   29 1
  50   26   27 ar
  51   26   31 1
  52   27   28 ar
  53   27   51 1
  54   28   52 1
  55   29   30 2
  56   29   53 1
  57   30   31 1
  58   32   54 1
  59   32   55 1

#	End of record

