#	Name: ASD03540222
#	Creating user name:	WinNT
#	Creation time:	15. 06. 2019 20:42

#	Modifying user name:	WinNT
#	Modification time:	15. 06. 2019 20:42

#	Program:	/corina/corina34_cracker 3.40 0067  02.08.2006

@<TRIPOS>MOLECULE
ASD03540222
  46   49    0    0    0
SMALL
NO_CHARGES


@<TRIPOS>ATOM
   1 C1            -0.0161     1.3365     0.0094 C.2     
   2 N2             0.0021    -0.0041     0.0020 N.am    
   3 C3             1.1931    -0.7075    -0.0132 C.2     
   4 C4             2.3928    -0.0051    -0.0209 C.2     
   5 C5             2.3194     1.4734    -0.0115 C.2     
   6 N6             1.1110     2.0661     0.0025 N.am    
   7 C7             3.5129    -0.8381    -0.0361 C.2     
   8 C8             3.2256    -2.1516    -0.0404 C.2     
   9 S9             1.4874    -2.3902    -0.0250 S.3     
  10 C10            4.2183    -3.2259    -0.0565 C.2     
  11 O11            5.4048    -2.9577    -0.0671 O.2     
  12 O12            3.8179    -4.5143    -0.0595 O.3     
  13 C13            1.0243     3.5285     0.0113 C.3     
  14 C14            2.1905     4.3222     2.0852 C.ar    
  15 C15            1.0082     4.0223     1.4350 C.ar    
  16 C16           -0.1926     4.1819     2.1090 C.ar    
  17 C17           -0.1592     4.6392     3.4177 C.ar    
  18 C18            1.0612     4.9187     4.0024 C.ar    
  19 N19            2.1843     4.7547     3.3308 N.ar    
  20 O20            3.3358     2.1426    -0.0175 O.2     
  21 O21           -1.0880     1.9101     0.0175 O.2     
  22 C22           -1.2652    -0.7390     0.0107 C.3     
  23 C23            4.8413    -5.5116    -0.0754 C.3     
  24 C24            4.2094    -6.8798    -0.0765 C.ar    
  25 C25            3.9074    -7.5007    -1.2740 C.ar    
  26 C26            3.3277    -8.7556    -1.2750 C.ar    
  27 C27            3.0505    -9.3898    -0.0785 C.ar    
  28 C28            3.3533    -8.7693     1.1191 C.ar    
  29 C29            3.9370    -7.5162     1.1200 C.ar    
  30 H30            4.5244    -0.4597    -0.0438 H       
  31 H31            1.8863     3.9467    -0.5086 H       
  32 H32            0.1095     3.8412    -0.4921 H       
  33 H33            3.1306     4.1963     1.5686 H       
  34 H34           -1.1319     3.9557     1.6262 H       
  35 H35           -1.0755     4.7756     3.9729 H       
  36 H36            1.0958     5.2753     5.0212 H       
  37 H37           -2.0950    -0.0322     0.0228 H       
  38 H38           -1.3307    -1.3609    -0.8820 H       
  39 H39           -1.3130    -1.3705     0.8978 H       
  40 H40            5.4510    -5.3923    -0.9710 H       
  41 H41            5.4691    -5.4021     0.8089 H       
  42 H42            4.1240    -7.0051    -2.2089 H       
  43 H43            3.0911    -9.2404    -2.2107 H       
  44 H44            2.5970   -10.3700    -0.0792 H       
  45 H45            3.1364    -9.2647     2.0539 H       
  46 H46            4.1770    -7.0330     2.0556 H       
@<TRIPOS>BOND
   1    1    2 am
   2    1    6 am
   3    1   21 2
   4    2    3 1
   5    2   22 1
   6    3    4 2
   7    3    9 1
   8    4    5 1
   9    4    7 1
  10    5    6 am
  11    5   20 2
  12    6   13 1
  13    7    8 2
  14    7   30 1
  15    8    9 1
  16    8   10 1
  17   10   11 2
  18   10   12 1
  19   12   23 1
  20   13   15 1
  21   13   31 1
  22   13   32 1
  23   14   15 ar
  24   14   19 ar
  25   14   33 1
  26   15   16 ar
  27   16   17 ar
  28   16   34 1
  29   17   18 ar
  30   17   35 1
  31   18   19 ar
  32   18   36 1
  33   22   37 1
  34   22   38 1
  35   22   39 1
  36   23   24 1
  37   23   40 1
  38   23   41 1
  39   24   25 ar
  40   24   29 ar
  41   25   26 ar
  42   25   42 1
  43   26   27 ar
  44   26   43 1
  45   27   28 ar
  46   27   44 1
  47   28   29 ar
  48   28   45 1
  49   29   46 1

#	End of record

