#	Name: ASD01411133
#	Creating user name:	WinNT
#	Creation time:	15. 06. 2019 19:19

#	Modifying user name:	WinNT
#	Modification time:	15. 06. 2019 19:19

#	Program:	/corina/corina34_cracker 3.40 0067  02.08.2006

@<TRIPOS>MOLECULE
ASD01411133
  85   88    0    0    0
SMALL
NO_CHARGES


@<TRIPOS>ATOM
   1 C1            -0.4538     2.2824    -0.3969 C.ar    
   2 C2            -0.3964     0.9631    -0.8389 C.ar    
   3 C3            -1.4873     0.1275    -0.6858 C.ar    
   4 C4            -2.6472     0.5996    -0.0895 C.ar    
   5 C5            -2.7103     1.9285     0.3584 C.ar    
   6 C6            -1.6005     2.7647     0.2036 C.ar    
   7 O7             0.6243     3.0969    -0.5518 O.3     
   8 C8             0.8104     3.6843    -1.7604 C.ar    
   9 N9            -3.7471    -0.2430     0.0643 N.am    
  10 C10           -3.9440    -0.8878     1.2313 C.2     
  11 C11           -3.0438    -0.6093     2.4074 C.3     
  12 O12           -4.8457    -1.6922     1.3350 O.2     
  13 C13           -3.7753    -0.9615     3.7042 C.3     
  14 C14           -1.7755    -1.4570     2.2908 C.3     
  15 C15           -0.8616    -1.1742     3.4848 C.3     
  16 C16           -1.5930    -1.5265     4.7817 C.3     
  17 C17           -2.8614    -0.6787     4.8982 C.3     
  18 C18           -0.6791    -1.2437     5.9757 C.3     
  19 N19           -0.1036     3.5410    -2.7062 N.ar    
  20 C20           -4.6889    -0.4275    -1.0426 C.3     
  21 C21           -4.5786     0.7540    -2.0084 C.3     
  22 C22            1.9559     4.4352    -1.9912 C.ar    
  23 C23            2.1336     5.0293    -3.2287 C.ar    
  24 C24            1.1543     4.8502    -4.1958 C.ar    
  25 C25            0.0378     4.0952    -3.8950 C.ar    
  26 F26            0.7306     0.4975    -1.4206 F       
  27 C27           -4.3574    -1.7245    -1.7834 C.3     
  28 O28           -5.0162     1.9466    -1.3541 O.3     
  29 O29           -4.5517    -2.8365    -0.9072 O.3     
  30 C30           -4.9531     3.1157    -2.1733 C.3     
  31 C31           -4.2680    -4.1034    -1.5042 C.3     
  32 C32            1.3048     5.4781    -5.5574 C.3     
  33 C33            2.0250     4.5231    -6.4741 C.2     
  34 N34            3.2040     4.0040    -6.1808 N.2     
  35 C35            3.7210     3.1943    -7.0520 C.2     
  36 S36            2.6734     3.0268    -8.3927 S.3     
  37 C37            1.5213     4.1294    -7.6441 C.2     
  38 N38            4.9446     2.5575    -6.9160 N.pl3   
  39 C39            5.4255     1.6620    -7.9710 C.3     
  40 C40            6.7900     1.0941    -7.5751 C.3     
  41 C41            2.9911     4.6013    -0.9088 C.3     
  42 F42            4.0407     5.3943    -1.3849 F       
  43 F43            2.4081     5.2180     0.2034 F       
  44 F44            3.4856     3.3456    -0.5399 F       
  45 C45           -3.9377     2.4380     0.9926 C.2     
  46 O46           -4.9288     1.7369     1.0486 O.2     
  47 O47           -3.9620     3.6818     1.5111 O.3     
  48 H48           -1.4363    -0.8944    -1.0316 H       
  49 H49           -1.6423     3.7880     0.5463 H       
  50 H50           -2.7752     0.4471     2.4171 H       
  51 H51           -4.6789    -0.3576     3.7872 H       
  52 H52           -4.0439    -2.0179     3.6944 H       
  53 H53           -2.0441    -2.5133     2.2810 H       
  54 H54           -1.2544    -1.2060     1.3669 H       
  55 H55            0.0420    -1.7781     3.4018 H       
  56 H56           -0.5929    -0.1179     3.4946 H       
  57 H57           -1.8617    -2.5828     4.7719 H       
  58 H58           -2.5927     0.3776     4.9080 H       
  59 H59           -3.3825    -0.9297     5.8221 H       
  60 H60           -0.4105    -0.1873     5.9854 H       
  61 H61           -1.2002    -1.4946     6.8995 H       
  62 H62            0.2245    -1.8476     5.8926 H       
  63 H63           -5.7044    -0.4825    -0.6502 H       
  64 H64           -3.5413     0.8713    -2.3219 H       
  65 H65           -5.2035     0.5686    -2.8820 H       
  66 H66            3.0140     5.6191    -3.4369 H       
  67 H67           -0.7270     3.9524    -4.6441 H       
  68 H68           -5.0116    -1.8257    -2.6494 H       
  69 H69           -3.3189    -1.6991    -2.1135 H       
  70 H70           -5.5857     2.9794    -3.0504 H       
  71 H71           -5.3018     3.9775    -1.6042 H       
  72 H72           -3.9235     3.2821    -2.4903 H       
  73 H73           -4.9203    -4.2539    -2.3644 H       
  74 H74           -3.2276    -4.1274    -1.8286 H       
  75 H75           -4.4396    -4.8953    -0.7751 H       
  76 H76            0.3191     5.7003    -5.9661 H       
  77 H77            1.8786     6.4008    -5.4707 H       
  78 H78            0.5742     4.4368    -8.0623 H       
  79 H79            5.4825     2.7048    -6.1224 H       
  80 H80            4.7168     0.8447    -8.1049 H       
  81 H81            5.5201     2.2175    -8.9040 H       
  82 H82            7.1478     0.4278    -8.3600 H       
  83 H83            7.4987     1.9113    -7.4412 H       
  84 H84            6.6955     0.5385    -6.6421 H       
  85 H85           -4.7903     3.9721     1.9171 H       
@<TRIPOS>BOND
   1    1    2 ar
   2    1    7 1
   3    1    6 ar
   4    2    3 ar
   5    2   26 1
   6    3    4 ar
   7    3   48 1
   8    4    5 ar
   9    4    9 1
  10    5    6 ar
  11    5   45 1
  12    6   49 1
  13    7    8 1
  14    8   22 ar
  15    8   19 ar
  16    9   10 am
  17    9   20 1
  18   10   11 1
  19   10   12 2
  20   11   13 1
  21   11   14 1
  22   11   50 1
  23   13   17 1
  24   13   51 1
  25   13   52 1
  26   14   15 1
  27   14   53 1
  28   14   54 1
  29   15   16 1
  30   15   55 1
  31   15   56 1
  32   16   17 1
  33   16   18 1
  34   16   57 1
  35   17   58 1
  36   17   59 1
  37   18   60 1
  38   18   61 1
  39   18   62 1
  40   19   25 ar
  41   20   21 1
  42   20   27 1
  43   20   63 1
  44   21   28 1
  45   21   64 1
  46   21   65 1
  47   22   23 ar
  48   22   41 1
  49   23   24 ar
  50   23   66 1
  51   24   25 ar
  52   24   32 1
  53   25   67 1
  54   27   29 1
  55   27   68 1
  56   27   69 1
  57   28   30 1
  58   29   31 1
  59   30   70 1
  60   30   71 1
  61   30   72 1
  62   31   73 1
  63   31   74 1
  64   31   75 1
  65   32   33 1
  66   32   76 1
  67   32   77 1
  68   33   34 1
  69   33   37 2
  70   34   35 2
  71   35   36 1
  72   35   38 1
  73   36   37 1
  74   37   78 1
  75   38   39 1
  76   38   79 1
  77   39   40 1
  78   39   80 1
  79   39   81 1
  80   40   82 1
  81   40   83 1
  82   40   84 1
  83   41   42 1
  84   41   43 1
  85   41   44 1
  86   45   46 2
  87   45   47 1
  88   47   85 1

#	End of record

