#	Name: ASD00431290
#	Creating user name:	WinNT
#	Creation time:	15. 06. 2019 18:35

#	Modifying user name:	WinNT
#	Modification time:	15. 06. 2019 18:35

#	Program:	/corina/corina34_cracker 3.40 0067  02.08.2006

@<TRIPOS>MOLECULE
ASD00431290
  53   55    0    0    0
SMALL
NO_CHARGES


@<TRIPOS>ATOM
   1 C1            -1.2062     0.3930     0.7678 C.2     
   2 N2            -0.8522    -0.9059     0.8299 N.am    
   3 O3            -0.3950     1.2278     0.4189 O.2     
   4 O4            -2.4601     0.7651     1.0869 O.3     
   5 C5             0.5105    -1.3115     0.4769 C.3     
   6 C6             1.4209    -1.1567     1.6968 C.3     
   7 O7            -0.2001    -3.7542     0.5729 O.3     
   8 N8            -0.0004    -4.8027     0.0049 N.2     
   9 C9             0.8524    -4.6587    -0.9794 C.2     
  10 C10            1.2159    -3.2827    -0.9890 C.2     
  11 C11            0.5069    -2.7514     0.0324 C.2     
  12 C12            1.3405    -5.7163    -1.8982 C.ar    
  13 C13            0.8859    -7.0266    -1.7589 C.ar    
  14 C14            1.3411    -8.0075    -2.6141 C.ar    
  15 C15            2.2519    -7.6911    -3.6137 C.ar    
  16 C16            2.7070    -6.3864    -3.7545 C.ar    
  17 C17            2.2503    -5.4004    -2.9060 C.ar    
  18 O18            2.6988    -8.6593    -4.4548 O.3     
  19 C19            3.9405    -9.1692    -4.2389 C.ar    
  20 C20            4.6949    -8.7257    -3.1624 C.ar    
  21 C21            5.9564    -9.2437    -2.9431 C.ar    
  22 C22            6.4689   -10.2073    -3.7992 C.ar    
  23 C23            5.7148   -10.6507    -4.8756 C.ar    
  24 C24            4.4510   -10.1370    -5.0917 C.ar    
  25 O25            7.7110   -10.7168    -3.5835 O.3     
  26 C26            8.4666   -10.1520    -2.5101 C.3     
  27 C27            8.0726   -10.8307    -1.1967 C.3     
  28 C28            9.9591   -10.3679    -2.7681 C.3     
  29 C29           -2.7707     2.1806     0.9972 C.3     
  30 H30           -1.4998    -1.5723     1.1084 H       
  31 H31            0.8786    -0.6821    -0.3333 H       
  32 H32            2.4348    -1.4584     1.4341 H       
  33 H33            1.4236    -0.1152     2.0183 H       
  34 H34            1.0529    -1.7861     2.5070 H       
  35 H35            1.8996    -2.7798    -1.6568 H       
  36 H36            0.1779    -7.2733    -0.9815 H       
  37 H37            0.9895    -9.0229    -2.5064 H       
  38 H38            3.4155    -6.1431    -4.5325 H       
  39 H39            2.6007    -4.3851    -3.0189 H       
  40 H40            4.2960    -7.9753    -2.4960 H       
  41 H41            6.5438    -8.8983    -2.1053 H       
  42 H42            6.1141   -11.4006    -5.5423 H       
  43 H43            3.8620   -10.4854    -5.9272 H       
  44 H44            8.2602    -9.0838    -2.4433 H       
  45 H45            8.6489   -10.3998    -0.3780 H       
  46 H46            7.0093   -10.6768    -1.0129 H       
  47 H47            8.2790   -11.8989    -1.2635 H       
  48 H48           10.2398    -9.8844    -3.7039 H       
  49 H49           10.5354    -9.9371    -1.9494 H       
  50 H50           10.1655   -11.4361    -2.8350 H       
  51 H51           -2.1195     2.7388     1.6698 H       
  52 H52           -2.6152     2.5226    -0.0260 H       
  53 H53           -3.8107     2.3431     1.2805 H       
@<TRIPOS>BOND
   1    1    2 am
   2    1    3 2
   3    1    4 1
   4    2    5 1
   5    2   30 1
   6    4   29 1
   7    5    6 1
   8    5   11 1
   9    5   31 1
  10    6   32 1
  11    6   33 1
  12    6   34 1
  13    7    8 1
  14    7   11 1
  15    8    9 2
  16    9   10 1
  17    9   12 1
  18   10   11 2
  19   10   35 1
  20   12   13 ar
  21   12   17 ar
  22   13   14 ar
  23   13   36 1
  24   14   15 ar
  25   14   37 1
  26   15   16 ar
  27   15   18 1
  28   16   17 ar
  29   16   38 1
  30   17   39 1
  31   18   19 1
  32   19   20 ar
  33   19   24 ar
  34   20   21 ar
  35   20   40 1
  36   21   22 ar
  37   21   41 1
  38   22   23 ar
  39   22   25 1
  40   23   24 ar
  41   23   42 1
  42   24   43 1
  43   25   26 1
  44   26   27 1
  45   26   28 1
  46   26   44 1
  47   27   45 1
  48   27   46 1
  49   27   47 1
  50   28   48 1
  51   28   49 1
  52   28   50 1
  53   29   51 1
  54   29   52 1
  55   29   53 1

#	End of record

