#	Name: ASD03090414
#	Creating user name:	WinNT
#	Creation time:	15. 06. 2019 20:28

#	Modifying user name:	WinNT
#	Modification time:	15. 06. 2019 20:28

#	Program:	/corina/corina34_cracker 3.40 0067  02.08.2006

@<TRIPOS>MOLECULE
ASD03090414
  36   38    0    0    0
SMALL
NO_CHARGES


@<TRIPOS>ATOM
   1 C1             0.0522     1.2545    -0.0230 C.ar    
   2 C2            -0.9487     1.7890     0.7775 C.ar    
   3 C3            -2.1877     1.1739     0.8096 C.ar    
   4 C4            -2.3828     0.0345     0.0317 C.ar    
   5 C5            -1.3358    -0.4418    -0.7434 C.ar    
   6 N6            -0.1694     0.1744    -0.7530 N.ar    
   7 N7            -3.6209    -0.6222     0.0328 N.am    
   8 C8            -4.7603     0.0882     0.1493 C.2     
   9 O9            -4.7120     1.2853     0.3382 O.2     
  10 C10           -6.0944    -0.6049     0.0447 C.3     
  11 O11            1.2710     1.8512    -0.0609 O.3     
  12 N12          -10.2244     3.2099     0.3860 N.pl3   
  13 C13          -10.3529     3.5350    -0.9369 C.2     
  14 C14           -9.4769     2.8288    -1.6689 C.2     
  15 C15           -8.7260     1.9822    -0.7387 C.ar    
  16 C16           -7.7014     1.0457    -0.8897 C.ar    
  17 C17           -7.1999     0.4060     0.2085 C.ar    
  18 C18           -7.7010     0.6795     1.4740 C.ar    
  19 C19           -8.7119     1.5993     1.6457 C.ar    
  20 C20           -9.2375     2.2625     0.5414 C.ar    
  21 C21            2.2594     1.2546    -0.9030 C.3     
  22 F22            1.8029     1.2479    -2.2254 F       
  23 F23            3.4462     1.9911    -0.8231 F       
  24 F24            2.4969    -0.0592    -0.4850 F       
  25 H25           -0.7623     2.6738     1.3681 H       
  26 H26           -2.9845     1.5673     1.4233 H       
  27 H27           -1.4784    -1.3245    -1.3491 H       
  28 H28           -3.6578    -1.5879    -0.0502 H       
  29 H29           -6.1803    -1.0823    -0.9314 H       
  30 H30           -6.1738    -1.3601     0.8267 H       
  31 H31          -10.7478     3.5929     1.1073 H       
  32 H32          -11.0554     4.2532    -1.3335 H       
  33 H33           -9.3498     2.8758    -2.7403 H       
  34 H34           -7.3072     0.8272    -1.8712 H       
  35 H35           -7.2943     0.1656     2.3325 H       
  36 H36           -9.0953     1.8048     2.6342 H       
@<TRIPOS>BOND
   1    1    2 ar
   2    1   11 1
   3    1    6 ar
   4    2    3 ar
   5    2   25 1
   6    3    4 ar
   7    3   26 1
   8    4    5 ar
   9    4    7 1
  10    5    6 ar
  11    5   27 1
  12    7    8 am
  13    7   28 1
  14    8    9 2
  15    8   10 1
  16   10   17 1
  17   10   29 1
  18   10   30 1
  19   11   21 1
  20   12   13 1
  21   12   20 1
  22   12   31 1
  23   13   14 2
  24   13   32 1
  25   14   15 1
  26   14   33 1
  27   15   16 ar
  28   15   20 ar
  29   16   17 ar
  30   16   34 1
  31   17   18 ar
  32   18   19 ar
  33   18   35 1
  34   19   20 ar
  35   19   36 1
  36   21   22 1
  37   21   23 1
  38   21   24 1

#	End of record

