#	Name: ASD04882103
#	Creating user name:	WinNT
#	Creation time:	15. 06. 2019 20:54

#	Modifying user name:	WinNT
#	Modification time:	15. 06. 2019 20:54

#	Program:	/corina/corina34_cracker 3.40 0067  02.08.2006

@<TRIPOS>MOLECULE
ASD04882103
  73   77    0    0    0
SMALL
NO_CHARGES


@<TRIPOS>ATOM
   1 C1             2.1820     1.8472    -0.8015 C.ar    
   2 C2             2.2245     0.4701    -0.7103 C.ar    
   3 C3             1.0466    -0.2512    -0.5597 C.ar    
   4 C4            -0.1701     0.4162    -0.5015 C.ar    
   5 C5            -0.2053     1.7940    -0.5934 C.ar    
   6 C6             0.9688     2.5087    -0.7432 C.ar    
   7 N7             1.0858    -1.6443    -0.4676 N.3     
   8 C8             0.6796    -2.0953     0.8707 C.3     
   9 C9             2.4194    -2.1574    -0.8108 C.3     
  10 C10            2.3991    -3.6874    -0.7753 C.3     
  11 N11            1.9929    -4.1384     0.5631 N.3     
  12 C12            0.6593    -3.6252     0.9063 C.3     
  13 C13            2.0320    -5.5271     0.6549 C.ar    
  14 C14            1.2442    -6.3009    -0.1890 C.ar    
  15 C15            2.8680    -6.1415     1.5921 C.ar    
  16 C16            2.9066    -7.5199     1.6830 C.ar    
  17 C17            2.1088    -8.2957     0.8367 C.ar    
  18 C18            1.2794    -7.6752    -0.1013 C.ar    
  19 N19            3.6660    -5.3608     2.4378 N.am    
  20 C20            3.9272    -5.7779     3.6925 C.2     
  21 C21            4.6722    -4.9058     4.6194 C.2     
  22 O22            3.5486    -6.8734     4.0603 O.2     
  23 C23            2.1470    -9.7675     0.9297 C.2     
  24 O24            2.8727   -10.3067     1.7429 O.2     
  25 N25            1.3775   -10.5145     0.1134 N.am    
  26 O26            5.1537    -3.6750     4.3619 O.3     
  27 C27            1.4154   -11.9761     0.2058 C.3     
  28 C28            0.4561   -12.5773    -0.8234 C.3     
  29 C29            0.4957   -14.1037    -0.7269 C.3     
  30 N30           -0.4229   -14.6793    -1.7123 N.am    
  31 C31           -0.0792   -15.0038    -2.9707 C.2     
  32 C32           -1.8350   -14.9815    -1.4506 C.3     
  33 C33           -2.4866   -15.1429    -2.8419 C.3     
  34 C34           -1.2757   -15.5617    -3.7094 C.3     
  35 O35            1.0288   -14.8683    -3.4450 O.2     
  36 N36            5.7201    -3.2114     5.3240 N.2     
  37 C37            5.7070    -4.0278     6.3373 C.2     
  38 C38            5.0087    -5.1814     5.9169 C.2     
  39 C39           -1.4503    -0.3620    -0.3388 C.3     
  40 H40            3.0977     2.4088    -0.9140 H       
  41 H41            3.1722    -0.0458    -0.7562 H       
  42 H42           -1.1510     2.3136    -0.5482 H       
  43 H43            0.9384     3.5859    -0.8144 H       
  44 H44            1.3887    -1.7237     1.6105 H       
  45 H45           -0.3159    -1.7130     1.0967 H       
  46 H46            2.6924    -1.8205    -1.8109 H       
  47 H47            3.1483    -1.7866    -0.0902 H       
  48 H48            1.6900    -4.0590    -1.5150 H       
  49 H49            3.3946    -4.0697    -1.0012 H       
  50 H50            0.3863    -3.9621     1.9063 H       
  51 H51           -0.0696    -3.9961     0.1857 H       
  52 H52            0.6027    -5.8236    -0.9150 H       
  53 H53            3.5519    -7.9968     2.4059 H       
  54 H54            0.6628    -8.2736    -0.7555 H       
  55 H55            4.0307    -4.5198     2.1205 H       
  56 H56            0.7986   -10.0844    -0.5352 H       
  57 H57            2.4282   -12.3266     0.0067 H       
  58 H58            1.1143   -12.2848     1.2069 H       
  59 H59           -0.5566   -12.2267    -0.6243 H       
  60 H60            0.7572   -12.2685    -1.8244 H       
  61 H61            1.5084   -14.4542    -0.9260 H       
  62 H62            0.1946   -14.4124     0.2742 H       
  63 H63           -1.9235   -15.9078    -0.8829 H       
  64 H64           -2.3024   -14.1597    -0.9082 H       
  65 H65           -3.2447   -15.9261    -2.8291 H       
  66 H66           -2.9088   -14.1990    -3.1868 H       
  67 H67           -1.3489   -15.1223    -4.7042 H       
  68 H68           -1.2107   -16.6478    -3.7749 H       
  69 H69            6.1420    -3.8555     7.3107 H       
  70 H70            4.7955    -6.0749     6.4849 H       
  71 H71           -1.6365    -0.5377     0.7207 H       
  72 H72           -2.2776     0.2065    -0.7637 H       
  73 H73           -1.3628    -1.3176    -0.8557 H       
@<TRIPOS>BOND
   1    1    2 ar
   2    1    6 ar
   3    1   40 1
   4    2    3 ar
   5    2   41 1
   6    3    4 ar
   7    3    7 1
   8    4    5 ar
   9    4   39 1
  10    5    6 ar
  11    5   42 1
  12    6   43 1
  13    7    8 1
  14    7    9 1
  15    8   12 1
  16    8   44 1
  17    8   45 1
  18    9   10 1
  19    9   46 1
  20    9   47 1
  21   10   11 1
  22   10   48 1
  23   10   49 1
  24   11   12 1
  25   11   13 1
  26   12   50 1
  27   12   51 1
  28   13   14 ar
  29   13   15 ar
  30   14   18 ar
  31   14   52 1
  32   15   16 ar
  33   15   19 1
  34   16   17 ar
  35   16   53 1
  36   17   18 ar
  37   17   23 1
  38   18   54 1
  39   19   20 am
  40   19   55 1
  41   20   21 1
  42   20   22 2
  43   21   26 1
  44   21   38 2
  45   23   24 2
  46   23   25 am
  47   25   27 1
  48   25   56 1
  49   26   36 1
  50   27   28 1
  51   27   57 1
  52   27   58 1
  53   28   29 1
  54   28   59 1
  55   28   60 1
  56   29   30 1
  57   29   61 1
  58   29   62 1
  59   30   31 am
  60   30   32 1
  61   31   35 2
  62   31   34 1
  63   32   33 1
  64   32   63 1
  65   32   64 1
  66   33   34 1
  67   33   65 1
  68   33   66 1
  69   34   67 1
  70   34   68 1
  71   36   37 2
  72   37   38 1
  73   37   69 1
  74   38   70 1
  75   39   71 1
  76   39   72 1
  77   39   73 1

#	End of record

