#	Name: ASD03731580
#	Creating user name:	WinNT
#	Creation time:	15. 06. 2019 20:46

#	Modifying user name:	WinNT
#	Modification time:	15. 06. 2019 20:46

#	Program:	/corina/corina34_cracker 3.40 0067  02.08.2006

@<TRIPOS>MOLECULE
ASD03731580
  33   34    0    0    0
SMALL
NO_CHARGES


@<TRIPOS>ATOM
   1 C1             0.3755     1.0935     1.9785 C.2     
   2 C2             0.2919    -0.2828     1.4518 C.ar    
   3 C3             1.3747    -0.8360     0.7625 C.ar    
   4 C4             1.2926    -2.1210     0.2724 C.ar    
   5 C5             0.1336    -2.8669     0.4627 C.ar    
   6 C6            -0.9447    -2.3193     1.1472 C.ar    
   7 C7            -0.8675    -1.0377     1.6459 C.ar    
   8 O8             1.3871     1.7474     1.8131 O.2     
   9 N9            -0.6716     1.6273     2.6381 N.am    
  10 S10           -0.5779     3.1714     3.2291 S.o2    
  11 O11           -1.8289     3.3776     3.8708 O.2     
  12 O12            0.6361     3.1910     3.9674 O.2     
  13 C13           -0.4411     4.2142     1.7512 C.3     
  14 O14            0.0558    -4.1323    -0.0217 O.3     
  15 C15           -1.1304    -4.7864     0.0898 C.ar    
  16 C16           -2.0840    -4.6707    -0.9113 C.ar    
  17 C17           -3.2891    -5.3361    -0.7966 C.ar    
  18 C18           -3.5458    -6.1179     0.3170 C.ar    
  19 C19           -2.5953    -6.2340     1.3171 C.ar    
  20 C20           -1.3866    -5.5751     1.2020 C.ar    
  21 F21           -4.7250    -6.7677     0.4280 F       
  22 Cl22           2.6364    -2.8099    -0.5840 Cl      
  23 H23            2.2742    -0.2570     0.6140 H       
  24 H24           -1.8429    -2.9012     1.2924 H       
  25 H25           -1.7044    -0.6149     2.1819 H       
  26 H26           -1.4802     1.1070     2.7667 H       
  27 H27           -1.3205     4.0716     1.1231 H       
  28 H28           -0.3736     5.2604     2.0496 H       
  29 H29            0.4531     3.9373     1.1926 H       
  30 H30           -1.8843    -4.0604    -1.7797 H       
  31 H31           -4.0316    -5.2462    -1.5757 H       
  32 H32           -2.7970    -6.8439     2.1853 H       
  33 H33           -0.6435    -5.6697     1.9800 H       
@<TRIPOS>BOND
   1    1    2 1
   2    1    8 2
   3    1    9 am
   4    2    3 ar
   5    2    7 ar
   6    3    4 ar
   7    3   23 1
   8    4    5 ar
   9    4   22 1
  10    5    6 ar
  11    5   14 1
  12    6    7 ar
  13    6   24 1
  14    7   25 1
  15    9   10 am
  16    9   26 1
  17   10   11 2
  18   10   12 2
  19   10   13 1
  20   13   27 1
  21   13   28 1
  22   13   29 1
  23   14   15 1
  24   15   16 ar
  25   15   20 ar
  26   16   17 ar
  27   16   30 1
  28   17   18 ar
  29   17   31 1
  30   18   19 ar
  31   18   21 1
  32   19   20 ar
  33   19   32 1
  34   20   33 1

#	End of record

