#	Name: ASD01418015
#	Creating user name:	WinNT
#	Creation time:	15. 06. 2019 19:20

#	Modifying user name:	WinNT
#	Modification time:	15. 06. 2019 19:20

#	Program:	/corina/corina34_cracker 3.40 0067  02.08.2006

@<TRIPOS>MOLECULE
ASD01418015
  69   74    0    0    0
SMALL
NO_CHARGES


@<TRIPOS>ATOM
   1 N1            -0.0105     1.3513     0.0105 N.pl3   
   2 C2             0.0191     0.0080    -0.0446 C.2     
   3 C3             1.1858    -0.6960    -0.0621 C.2     
   4 C4             2.4614     0.0314    -0.0193 C.2     
   5 C5             2.3979     1.5005     0.0407 C.ar    
   6 C6             3.5609     2.2739     0.0847 C.ar    
   7 C7             3.4684     3.6353     0.1404 C.ar    
   8 C8             2.2169     4.2580     0.1540 C.ar    
   9 C9             1.0555     3.5049     0.1114 C.ar    
  10 C10            1.1335     2.1179     0.0535 C.ar    
  11 O11            3.5292    -0.5580    -0.0326 O.2     
  12 N12            2.1374     5.6476     0.2115 N.3     
  13 C13            1.4343     6.1838    -0.9623 C.3     
  14 C14            1.2983     7.7018    -0.8227 C.3     
  15 N15            2.6340     8.3009    -0.6933 N.3     
  16 C16            3.3371     7.7646     0.4805 C.3     
  17 C17            3.4731     6.2466     0.3409 C.3     
  18 C18            2.5501     9.7662    -0.6327 C.3     
  19 C19           -1.3106     2.0265     0.0192 C.3     
  20 C20           -1.7031     2.3789    -1.3925 C.ar    
  21 C21           -2.1619     1.3933    -2.2504 C.ar    
  22 C22           -2.5221     1.7185    -3.5469 C.ar    
  23 C23           -2.4232     3.0261    -3.9838 C.ar    
  24 C24           -1.9646     4.0089    -3.1268 C.ar    
  25 C25           -1.6105     3.6864    -1.8297 C.ar    
  26 C26           -2.8152     3.3803    -5.3952 C.3     
  27 F27           -4.1725     3.7171    -5.4316 F       
  28 F28           -2.0527     4.4691    -5.8316 F       
  29 F29           -2.5841     2.2837    -6.2325 F       
  30 F30           -2.2577     0.1155    -1.8224 F       
  31 F31            4.5921     4.3840     0.1830 F       
  32 O32            0.4331    -4.1067    -0.2094 O.3     
  33 N33            0.1056    -2.9397    -0.1650 N.2     
  34 C34            1.1680    -2.1762    -0.1229 C.2     
  35 N35            2.2467    -2.9924    -0.1453 N.2     
  36 C36            1.7658    -4.2093    -0.2000 C.2     
  37 C37            2.5652    -5.4861    -0.2434 C.3     
  38 C38            2.8167    -5.9693     1.1617 C.ar    
  39 C39            1.9173    -6.8250     1.7698 C.ar    
  40 C40            2.1480    -7.2682     3.0586 C.ar    
  41 C41            3.2784    -6.8560     3.7393 C.ar    
  42 C42            4.1782    -6.0010     3.1310 C.ar    
  43 C43            3.9497    -5.5613     1.8405 C.ar    
  44 H44           -0.9154    -0.5324    -0.0759 H       
  45 H45            4.5297     1.7966     0.0751 H       
  46 H46            0.0924     3.9933     0.1226 H       
  47 H47            2.0013     5.9508    -1.8636 H       
  48 H48            0.4435     5.7345    -1.0293 H       
  49 H49            0.8028     8.1053    -1.7057 H       
  50 H50            0.7082     7.9341     0.0638 H       
  51 H51            4.3279     8.2139     0.5475 H       
  52 H52            2.7701     7.9976     1.3818 H       
  53 H53            3.9686     5.8431     1.2239 H       
  54 H54            4.0632     6.0144    -0.5456 H       
  55 H55            1.9502    10.0605     0.2284 H       
  56 H56            3.5524    10.1839    -0.5371 H       
  57 H57            2.0856    10.1416    -1.5446 H       
  58 H58           -2.0612     1.3642     0.4504 H       
  59 H59           -1.2434     2.9365     0.6155 H       
  60 H60           -2.8797     0.9506    -4.2169 H       
  61 H61           -1.8871     5.0302    -3.4693 H       
  62 H62           -1.2572     4.4560    -1.1594 H       
  63 H63            2.0089    -6.2445    -0.7943 H       
  64 H64            3.5177    -5.3017    -0.7402 H       
  65 H65            1.0342    -7.1470     1.2380 H       
  66 H66            1.4450    -7.9361     3.5340 H       
  67 H67            3.4582    -7.2017     4.7466 H       
  68 H68            5.0612    -5.6787     3.6629 H       
  69 H69            4.6547    -4.8962     1.3638 H       
@<TRIPOS>BOND
   1    1    2 1
   2    1   10 1
   3    1   19 1
   4    2    3 2
   5    2   44 1
   6    3    4 1
   7    3   34 1
   8    4    5 1
   9    4   11 2
  10    5    6 ar
  11    5   10 ar
  12    6    7 ar
  13    6   45 1
  14    7    8 ar
  15    7   31 1
  16    8    9 ar
  17    8   12 1
  18    9   10 ar
  19    9   46 1
  20   12   13 1
  21   12   17 1
  22   13   14 1
  23   13   47 1
  24   13   48 1
  25   14   15 1
  26   14   49 1
  27   14   50 1
  28   15   16 1
  29   15   18 1
  30   16   17 1
  31   16   51 1
  32   16   52 1
  33   17   53 1
  34   17   54 1
  35   18   55 1
  36   18   56 1
  37   18   57 1
  38   19   20 1
  39   19   58 1
  40   19   59 1
  41   20   21 ar
  42   20   25 ar
  43   21   22 ar
  44   21   30 1
  45   22   23 ar
  46   22   60 1
  47   23   24 ar
  48   23   26 1
  49   24   25 ar
  50   24   61 1
  51   25   62 1
  52   26   27 1
  53   26   28 1
  54   26   29 1
  55   32   33 1
  56   32   36 1
  57   33   34 2
  58   34   35 1
  59   35   36 2
  60   36   37 1
  61   37   38 1
  62   37   63 1
  63   37   64 1
  64   38   39 ar
  65   38   43 ar
  66   39   40 ar
  67   39   65 1
  68   40   41 ar
  69   40   66 1
  70   41   42 ar
  71   41   67 1
  72   42   43 ar
  73   42   68 1
  74   43   69 1

#	End of record

