#	Name: ASD04882385
#	Creating user name:	WinNT
#	Creation time:	15. 06. 2019 20:54

#	Modifying user name:	WinNT
#	Modification time:	15. 06. 2019 20:54

#	Program:	/corina/corina34_cracker 3.40 0067  02.08.2006

@<TRIPOS>MOLECULE
ASD04882385
  74   79    0    0    0
SMALL
NO_CHARGES


@<TRIPOS>ATOM
   1 N1             0.1842     1.2772     0.5972 N.am    
   2 C2             0.2175    -0.1231     0.5756 C.ar    
   3 C3            -0.9497    -0.8543     0.8134 C.ar    
   4 C4            -0.9182    -2.2439     0.7918 C.ar    
   5 C5             0.2626    -2.9052     0.5366 C.ar    
   6 C6             1.4335    -2.1802     0.2979 C.ar    
   7 C7             1.4034    -0.7829     0.3134 C.ar    
   8 N8            -2.1457    -0.1898     1.0728 N.3     
   9 C9            -3.1646    -0.5284     0.0694 C.3     
  10 C10           -2.6282    -0.4842     2.4293 C.3     
  11 C11           -3.8983     0.3247     2.7029 C.3     
  12 N12           -4.9173    -0.0139     1.6995 N.3     
  13 C13           -4.4347     0.2805     0.3430 C.3     
  14 C14            2.6982    -2.8887     0.0245 C.2     
  15 O15            3.7164    -2.2572    -0.1830 O.2     
  16 C16            1.0473     1.9836    -0.1595 C.2     
  17 C17            0.9603     3.4468    -0.1987 C.2     
  18 O18            1.8990     1.4069    -0.8103 O.2     
  19 C19           -6.1169     0.6526     1.9597 C.ar    
  20 C20           -7.2782    -0.0715     2.1963 C.ar    
  21 C21           -6.1499     2.0412     1.9879 C.ar    
  22 C22           -7.3375     2.6969     2.2454 C.ar    
  23 C23           -8.4932     1.9729     2.4755 C.ar    
  24 C24           -8.4628     0.5908     2.4533 C.ar    
  25 O25            0.0689     4.2062     0.4713 O.3     
  26 C26            1.7711     4.2799    -0.9152 C.2     
  27 C27            1.3329     5.5885    -0.6584 C.2     
  28 C28            0.2893     5.4982     0.1952 C.2     
  29 N29            2.7252    -4.2361     0.0047 N.am    
  30 C30           -7.2460    -1.5779     2.1723 C.3     
  31 C31            3.9811    -4.9397    -0.2668 C.3     
  32 C32            3.7376    -6.4498    -0.2314 C.3     
  33 C33            2.8288    -6.8768    -1.4066 C.3     
  34 C34            5.0724    -7.2213    -0.4649 C.3     
  35 C35            4.5317    -8.5515    -1.0985 C.3     
  36 C36            3.7000    -7.8660    -2.2395 C.3     
  37 C37            5.7027    -6.5405    -1.7181 C.3     
  38 C38            4.7938    -6.9675    -2.8933 C.3     
  39 H39            5.7183    -7.3305     0.4064 H       
  40 H40            3.1560    -8.5343    -2.9070 H       
  41 H41           -0.4627     1.7384     1.1537 H       
  42 H42           -1.8217    -2.8063     0.9759 H       
  43 H43            0.2839    -3.9849     0.5212 H       
  44 H44            2.3065    -0.2200     0.1294 H       
  45 H45           -2.7887    -0.2898    -0.9255 H       
  46 H46           -3.3920    -1.5929     0.1270 H       
  47 H47           -2.8495    -1.5482     2.5137 H       
  48 H48           -1.8612    -0.2134     3.1549 H       
  49 H49           -4.2743     0.0861     3.6978 H       
  50 H50           -3.6709     1.3892     2.6453 H       
  51 H51           -4.2134     1.3445     0.2586 H       
  52 H52           -5.2017     0.0097    -0.3826 H       
  53 H53           -5.2476     2.6072     1.8091 H       
  54 H54           -7.3639     3.7764     2.2675 H       
  55 H55           -9.4207     2.4882     2.6773 H       
  56 H56           -9.3671     0.0284     2.6333 H       
  57 H57            2.5909     3.9885    -1.5551 H       
  58 H58            1.7527     6.4969    -1.0646 H       
  59 H59           -0.2745     6.3306     0.5896 H       
  60 H60            1.9130    -4.7399     0.1703 H       
  61 H61           -7.0262    -1.9526     3.1720 H       
  62 H62           -8.2149    -1.9569     1.8472 H       
  63 H63           -6.4737    -1.9139     1.4805 H       
  64 H64            4.3519    -4.6545    -1.2513 H       
  65 H65            4.7182    -4.6727     0.4905 H       
  66 H66            3.2905    -6.7397     0.7195 H       
  67 H67            1.9358    -7.3784    -1.0337 H       
  68 H68            2.5554    -6.0109    -2.0096 H       
  69 H69            5.3355    -9.1718    -1.4948 H       
  70 H70            3.8972    -9.1055    -0.4066 H       
  71 H71            5.6946    -5.4563    -1.6060 H       
  72 H72            6.7199    -6.8996    -1.8744 H       
  73 H73            5.3642    -7.5365    -3.6275 H       
  74 H74            4.3389    -6.0932    -3.3590 H       
@<TRIPOS>BOND
   1    1    2 1
   2    1   16 am
   3    1   41 1
   4    2    3 ar
   5    2    7 ar
   6    3    4 ar
   7    3    8 1
   8    4    5 ar
   9    4   42 1
  10    5    6 ar
  11    5   43 1
  12    6    7 ar
  13    6   14 1
  14    7   44 1
  15    8    9 1
  16    8   10 1
  17    9   13 1
  18    9   45 1
  19    9   46 1
  20   10   11 1
  21   10   47 1
  22   10   48 1
  23   11   12 1
  24   11   49 1
  25   11   50 1
  26   12   13 1
  27   12   19 1
  28   13   51 1
  29   13   52 1
  30   14   15 2
  31   14   29 am
  32   16   18 2
  33   16   17 1
  34   17   25 1
  35   17   26 2
  36   19   20 ar
  37   19   21 ar
  38   20   30 1
  39   20   24 ar
  40   21   22 ar
  41   21   53 1
  42   22   23 ar
  43   22   54 1
  44   23   24 ar
  45   23   55 1
  46   24   56 1
  47   25   28 1
  48   26   27 1
  49   26   57 1
  50   27   28 2
  51   27   58 1
  52   28   59 1
  53   29   31 1
  54   29   60 1
  55   30   61 1
  56   30   62 1
  57   30   63 1
  58   31   32 1
  59   31   64 1
  60   31   65 1
  61   32   33 1
  62   32   34 1
  63   32   66 1
  64   33   36 1
  65   33   67 1
  66   33   68 1
  67   34   35 1
  68   34   37 1
  69   34   39 1
  70   35   36 1
  71   35   69 1
  72   35   70 1
  73   36   38 1
  74   36   40 1
  75   37   38 1
  76   37   71 1
  77   37   72 1
  78   38   73 1
  79   38   74 1

#	End of record

