#	Name: ASD01190030
#	Creating user name:	WinNT
#	Creation time:	15. 06. 2019 19:07

#	Modifying user name:	WinNT
#	Modification time:	15. 06. 2019 19:07

#	Program:	/corina/corina34_cracker 3.40 0067  02.08.2006

@<TRIPOS>MOLECULE
ASD01190030
  78   82    0    0    0
SMALL
NO_CHARGES


@<TRIPOS>ATOM
   1 C1            -0.4629     1.5032    -0.1289 C.3     
   2 C2            -3.3910    -0.2097     5.5125 C.2     
   3 C3            -2.3561    -0.3839     6.5457 C.2     
   4 C4            -0.9531    -0.1308     6.1834 C.2     
   5 C5            -0.6356     0.2834     4.9644 C.2     
   6 C6            -1.6567     0.5385     3.8957 C.3     
   7 C7            -3.0518     0.2099     4.3038 C.2     
   8 C8             0.8262     0.5000     4.6209 C.3     
   9 C9             1.1343    -0.2726     3.3345 C.3     
  10 C10            0.1651     0.1584     2.2318 C.3     
  11 C11           -1.2688    -0.2282     2.6277 C.3     
  12 C12            0.4949    -0.5698     0.9416 C.3     
  13 C13           -0.4668    -0.0266    -0.1493 C.3     
  14 C14           -1.8546    -0.5413     0.1815 C.3     
  15 C15           -2.2667     0.0931     1.5193 C.3     
  16 C16            1.8654    -0.2553     0.3315 C.3     
  17 C17            1.6743    -0.6277    -1.1641 C.3     
  18 C18            0.1545    -0.5309    -1.4476 C.3     
  19 C19           -0.1070     0.4454    -2.5653 C.2     
  20 O20            0.2302     1.5993    -2.4504 O.2     
  21 F21           -1.3206    -1.6021     2.8864 F       
  22 O22           -2.6550    -0.7289     7.6737 O.2     
  23 O23           -2.3439     1.5109     1.3584 O.3     
  24 O24           -0.3700    -1.8179    -1.7803 O.3     
  25 C25           -0.7893    -0.0181    -3.8266 C.3     
  26 C26            2.4379     0.3568    -2.0521 C.3     
  27 O27           -0.9248     1.1003    -4.7426 O.3     
  28 C28           -1.5184     0.8530    -5.9255 C.2     
  29 O29           -1.9123    -0.2667    -6.1853 O.2     
  30 N30           -1.6756     1.8475    -6.8215 N.am    
  31 C31           -2.3214     1.5785    -8.1087 C.3     
  32 C32           -2.3734     2.8668    -8.9323 C.3     
  33 S33           -3.1731     2.5336   -10.5261 S.3     
  34 S34           -5.1279     2.2075   -10.0020 S.3     
  35 C35           -5.7989     3.8356    -9.9412 C.ar    
  36 N36           -6.3343     4.3661   -11.0304 N.ar    
  37 C37           -6.8479     5.5817   -11.0272 C.ar    
  38 C38           -6.8448     6.3485    -9.8795 C.ar    
  39 C39           -6.2928     5.8292    -8.7154 C.ar    
  40 C40           -5.7669     4.5508    -8.7474 C.ar    
  41 C41           -1.6088     2.0281     3.5496 C.3     
  42 H42            0.4953     1.8691    -0.4978 H       
  43 H43           -1.2644     1.8771    -0.7661 H       
  44 H44           -0.6170     1.8534     0.8918 H       
  45 H45           -4.4241    -0.4282     5.7392 H       
  46 H46           -0.1749    -0.2834     6.9166 H       
  47 H47           -3.8344     0.3207     3.5678 H       
  48 H48            1.0141     1.5624     4.4659 H       
  49 H49            1.4534     0.1294     5.4317 H       
  50 H50            2.1570    -0.0627     3.0212 H       
  51 H51            1.0235    -1.3414     3.5176 H       
  52 H52            0.2286     1.2370     2.0874 H       
  53 H53            0.3603    -1.6441     1.0678 H       
  54 H54           -2.5554    -0.2480    -0.6001 H       
  55 H55           -1.8352    -1.6271     0.2758 H       
  56 H56           -3.2485    -0.2849     1.8044 H       
  57 H57            2.1012     0.8036     0.4382 H       
  58 H58            2.6407    -0.8718     0.7864 H       
  59 H59            2.0245    -1.6440    -1.3442 H       
  60 H60           -2.9846     1.7970     0.6930 H       
  61 H61           -0.0110    -2.1897    -2.5976 H       
  62 H62           -0.1934    -0.8014    -4.2952 H       
  63 H63           -1.7768    -0.4097    -3.5826 H       
  64 H64            3.5024     0.3009    -1.8247 H       
  65 H65            2.2762     0.1021    -3.0995 H       
  66 H66            2.0790     1.3688    -1.8647 H       
  67 H67           -1.3611     2.7414    -6.6141 H       
  68 H68           -1.7514     0.8236    -8.6504 H       
  69 H69           -3.3348     1.2153    -7.9378 H       
  70 H70           -2.9434     3.6216    -8.3906 H       
  71 H71           -1.3600     3.2300    -9.1032 H       
  72 H72           -7.2758     5.9819   -11.9344 H       
  73 H73           -7.2671     7.3425    -9.8866 H       
  74 H74           -6.2783     6.4094    -7.8046 H       
  75 H75           -5.3300     4.1162    -7.8605 H       
  76 H76           -0.7569     2.2225     2.8980 H       
  77 H77           -2.5290     2.3122     3.0391 H       
  78 H78           -1.5064     2.6108     4.4651 H       
@<TRIPOS>BOND
   1    1   13 1
   2    1   42 1
   3    1   43 1
   4    1   44 1
   5    2    3 1
   6    2    7 2
   7    2   45 1
   8    3    4 1
   9    3   22 2
  10    4    5 2
  11    4   46 1
  12    5    6 1
  13    5    8 1
  14    6    7 1
  15    6   11 1
  16    6   41 1
  17    7   47 1
  18    8    9 1
  19    8   48 1
  20    8   49 1
  21    9   10 1
  22    9   50 1
  23    9   51 1
  24   10   11 1
  25   10   12 1
  26   10   52 1
  27   11   21 1
  28   11   15 1
  29   12   13 1
  30   12   16 1
  31   12   53 1
  32   13   14 1
  33   13   18 1
  34   14   15 1
  35   14   54 1
  36   14   55 1
  37   15   23 1
  38   15   56 1
  39   16   17 1
  40   16   57 1
  41   16   58 1
  42   17   18 1
  43   17   26 1
  44   17   59 1
  45   18   19 1
  46   18   24 1
  47   19   20 2
  48   19   25 1
  49   23   60 1
  50   24   61 1
  51   25   27 1
  52   25   62 1
  53   25   63 1
  54   26   64 1
  55   26   65 1
  56   26   66 1
  57   27   28 1
  58   28   29 2
  59   28   30 am
  60   30   31 1
  61   30   67 1
  62   31   32 1
  63   31   68 1
  64   31   69 1
  65   32   33 1
  66   32   70 1
  67   32   71 1
  68   33   34 1
  69   34   35 1
  70   35   36 ar
  71   35   40 ar
  72   36   37 ar
  73   37   38 ar
  74   37   72 1
  75   38   39 ar
  76   38   73 1
  77   39   40 ar
  78   39   74 1
  79   40   75 1
  80   41   76 1
  81   41   77 1
  82   41   78 1

#	End of record

