#	Name: ASD02500631
#	Creating user name:	WinNT
#	Creation time:	15. 06. 2019 20:23

#	Modifying user name:	WinNT
#	Modification time:	15. 06. 2019 20:23

#	Program:	/corina/corina34_cracker 3.40 0067  02.08.2006

@<TRIPOS>MOLECULE
ASD02500631
  68   72    0    0    0
SMALL
NO_CHARGES


@<TRIPOS>ATOM
   1 N1            -3.6593     5.9355    -1.4714 N.ar    
   2 C2            -4.4676     6.6007    -2.2604 C.ar    
   3 C3            -5.8464     6.6080    -2.0599 C.ar    
   4 C4            -6.3876     5.9088    -1.0190 C.ar    
   5 C5            -5.5166     5.1953    -0.1740 C.ar    
   6 C6            -5.9995     4.4543     0.9163 C.ar    
   7 C7            -5.1245     3.7778     1.7106 C.ar    
   8 C8            -3.7551     3.8114     1.4562 C.ar    
   9 C9            -3.2527     4.5196     0.4081 C.ar    
  10 C10           -4.1241     5.2310    -0.4347 C.ar    
  11 S11           -1.5164     4.5454     0.1095 S.o2    
  12 O12           -1.1557     5.9114    -0.0429 O.2     
  13 O13           -0.9294     3.6902     1.0808 O.2     
  14 N14           -1.2611     3.8276    -1.3609 N.am    
  15 C15           -1.5097     2.4693    -1.5240 C.ar    
  16 C16           -0.7215     1.7180    -2.3918 C.ar    
  17 C17           -0.9650     0.3737    -2.5553 C.ar    
  18 C18           -2.0052    -0.2378    -1.8490 C.ar    
  19 C19           -2.7947     0.5192    -0.9786 C.ar    
  20 C20           -2.5425     1.8622    -0.8151 C.ar    
  21 C21            0.3991     2.3780    -3.1530 C.3     
  22 C22           -2.2693    -1.6787    -2.0224 C.2     
  23 O23           -2.1996    -2.1809    -3.1276 O.2     
  24 N24           -2.5878    -2.4386    -0.9558 N.am    
  25 C25           -2.7647    -3.8925    -1.0905 C.3     
  26 C26           -1.9085    -4.5877    -0.0266 C.3     
  27 N27           -2.2387    -4.0417     1.2966 N.3     
  28 C28           -1.9114    -2.6120     1.3800 C.3     
  29 C29           -2.7618    -1.8368     0.3749 C.3     
  30 C30           -1.5664    -4.7986     2.3611 C.3     
  31 C31           -1.7254    -4.0716     3.6716 C.ar    
  32 C32           -2.8121    -4.3418     4.4833 C.ar    
  33 C33           -2.9599    -3.6758     5.6862 C.ar    
  34 C34           -2.0151    -2.7352     6.0780 C.ar    
  35 C35           -0.9275    -2.4676     5.2613 C.ar    
  36 C36           -0.7819    -3.1403     4.0626 C.ar    
  37 O37           -2.1575    -2.0783     7.2597 O.3     
  38 C38           -1.1480    -1.1250     7.5978 C.3     
  39 F39           -4.0215    -3.9391     6.4792 F       
  40 H40           -4.0537     7.1581    -3.0877 H       
  41 H41           -6.4866     7.1663    -2.7269 H       
  42 H42           -7.4541     5.9038    -0.8486 H       
  43 H43           -7.0588     4.4213     1.1240 H       
  44 H44           -5.4969     3.2080     2.5491 H       
  45 H45           -3.0814     3.2670     2.1012 H       
  46 H46           -0.9381     4.3547    -2.1084 H       
  47 H47           -0.3535    -0.2084    -3.2288 H       
  48 H48           -3.5989     0.0496    -0.4316 H       
  49 H49           -3.1490     2.4466    -0.1391 H       
  50 H50            1.3164     2.3266    -2.5665 H       
  51 H51            0.5457     1.8634    -4.1027 H       
  52 H52            0.1458     3.4215    -3.3406 H       
  53 H53           -3.8135    -4.1491    -0.9415 H       
  54 H54           -2.4446    -4.2099    -2.0829 H       
  55 H55           -2.1114    -5.6585    -0.0392 H       
  56 H56           -0.8534    -4.4144    -0.2386 H       
  57 H57           -2.1164    -2.2501     2.3875 H       
  58 H58           -0.8563    -2.4663     1.1484 H       
  59 H59           -2.4397    -0.7957     0.3509 H       
  60 H60           -3.8103    -1.8919     0.6675 H       
  61 H61           -2.0124    -5.7901     2.4392 H       
  62 H62           -0.5066    -4.8945     2.1251 H       
  63 H63           -3.5458    -5.0728     4.1774 H       
  64 H64           -0.1918    -1.7369     5.5636 H       
  65 H65            0.0679    -2.9348     3.4287 H       
  66 H66           -0.1810    -1.6248     7.6551 H       
  67 H67           -1.1110    -0.3486     6.8337 H       
  68 H68           -1.3820    -0.6747     8.5624 H       
@<TRIPOS>BOND
   1    1    2 ar
   2    1   10 ar
   3    2    3 ar
   4    2   40 1
   5    3    4 ar
   6    3   41 1
   7    4    5 ar
   8    4   42 1
   9    5    6 ar
  10    5   10 ar
  11    6    7 ar
  12    6   43 1
  13    7    8 ar
  14    7   44 1
  15    8    9 ar
  16    8   45 1
  17    9   10 ar
  18    9   11 1
  19   11   12 2
  20   11   13 2
  21   11   14 am
  22   14   15 1
  23   14   46 1
  24   15   16 ar
  25   15   20 ar
  26   16   17 ar
  27   16   21 1
  28   17   18 ar
  29   17   47 1
  30   18   19 ar
  31   18   22 1
  32   19   20 ar
  33   19   48 1
  34   20   49 1
  35   21   50 1
  36   21   51 1
  37   21   52 1
  38   22   23 2
  39   22   24 am
  40   24   25 1
  41   24   29 1
  42   25   26 1
  43   25   53 1
  44   25   54 1
  45   26   27 1
  46   26   55 1
  47   26   56 1
  48   27   28 1
  49   27   30 1
  50   28   29 1
  51   28   57 1
  52   28   58 1
  53   29   59 1
  54   29   60 1
  55   30   31 1
  56   30   61 1
  57   30   62 1
  58   31   32 ar
  59   31   36 ar
  60   32   33 ar
  61   32   63 1
  62   33   34 ar
  63   33   39 1
  64   34   35 ar
  65   34   37 1
  66   35   36 ar
  67   35   64 1
  68   36   65 1
  69   37   38 1
  70   38   66 1
  71   38   67 1
  72   38   68 1

#	End of record

