#	Name: ASD01850075
#	Creating user name:	WinNT
#	Creation time:	15. 06. 2019 19:38

#	Modifying user name:	WinNT
#	Modification time:	15. 06. 2019 19:38

#	Program:	/corina/corina34_cracker 3.40 0067  02.08.2006

@<TRIPOS>MOLECULE
ASD01850075
  62   65    0    0    0
SMALL
NO_CHARGES


@<TRIPOS>ATOM
   1 C1             9.3430     2.7116     1.8658 C.ar    
   2 C2             9.3603     3.8470     1.0779 C.ar    
   3 C3             8.1725     4.4015     0.6383 C.ar    
   4 C4             6.9679     3.8202     0.9863 C.ar    
   5 C5             6.9506     2.6839     1.7737 C.ar    
   6 C6             8.1379     2.1304     2.2144 C.ar    
   7 C7             4.0254     2.1761     0.1981 C.3     
   8 N8             4.5459     2.7295     1.4507 N.am    
   9 C9             4.7164     2.8559    -0.9857 C.3     
  10 C10            4.0208     3.8632     1.9562 C.2     
  11 C11            4.6330     4.4977     3.1783 C.3     
  12 O12            3.0556     4.3728     1.4274 O.2     
  13 C13            4.1001     5.9239     3.3335 C.3     
  14 C14            4.2664     3.6767     4.4168 C.3     
  15 C15            4.9188     4.3049     5.6524 C.3     
  16 N16            4.5259     5.7186     5.7275 N.am    
  17 C17            4.7507     6.5775     4.5568 C.3     
  18 C18            5.1555     6.9194     8.1225 C.ar    
  19 C19            5.5806     8.2102     7.9991 C.ar    
  20 C20            6.6236     8.6756     8.8079 C.ar    
  21 C21            7.2230     7.8070     9.7402 C.ar    
  22 C22            6.7674     6.4949     9.8438 C.ar    
  23 C23            5.7447     6.0653     9.0468 C.ar    
  24 C24            7.3107     9.9563     8.9398 C.2     
  25 N25            8.2190     9.8269     9.8643 N.2     
  26 N26            8.1983     8.5267    10.3795 N.pl3   
  27 C27            5.6371     2.0506     2.1540 C.3     
  28 C28            4.1132     2.3393    -2.2935 C.3     
  29 C29            8.1191     0.8921     3.0731 C.3     
  30 F30            9.4311     0.4664     3.3064 F       
  31 F31            7.4983     1.1802     4.2933 F       
  32 F32            7.4102    -0.1198     2.4167 F       
  33 S33            3.8421     6.3322     7.1052 S.o2    
  34 O34            3.0990     7.4768     6.7090 O.2     
  35 O35            3.2647     5.2302     7.7918 O.2     
  36 H36           10.2709     2.2759     2.2056 H       
  37 H37           10.3016     4.3013     0.8060 H       
  38 H38            8.1860     5.2891     0.0232 H       
  39 H39            6.0400     4.2537     0.6434 H       
  40 H40            4.2202     1.1041     0.1658 H       
  41 H41            2.9512     2.3520     0.1417 H       
  42 H42            4.5723     3.9343    -0.9202 H       
  43 H43            5.7824     2.6297    -0.9630 H       
  44 H44            5.7171     4.5250     3.0689 H       
  45 H45            4.3412     6.5014     2.4411 H       
  46 H46            3.0188     5.8957     3.4680 H       
  47 H47            3.1835     3.6697     4.5411 H       
  48 H48            4.6258     2.6549     4.2954 H       
  49 H49            4.5816     3.7838     6.5484 H       
  50 H50            6.0032     4.2309     5.5704 H       
  51 H51            5.8214     6.6888     4.3855 H       
  52 H52            4.3026     7.5559     4.7299 H       
  53 H53            5.1151     8.8689     7.2809 H       
  54 H54            7.2197     5.8196    10.5550 H       
  55 H55            5.3946     5.0471     9.1310 H       
  56 H56            7.1030    10.8514     8.3723 H       
  57 H57            8.7807     8.1888    11.0777 H       
  58 H58            5.6480     0.9966     1.8764 H       
  59 H59            5.4879     2.1414     3.2299 H       
  60 H60            4.6054     2.8236    -3.1369 H       
  61 H61            4.2573     1.2609    -2.3591 H       
  62 H62            3.0472     2.5655    -2.3162 H       
@<TRIPOS>BOND
   1    1    2 ar
   2    1    6 ar
   3    1   36 1
   4    2    3 ar
   5    2   37 1
   6    3    4 ar
   7    3   38 1
   8    4    5 ar
   9    4   39 1
  10    5    6 ar
  11    5   27 1
  12    6   29 1
  13    7    8 1
  14    7    9 1
  15    7   40 1
  16    7   41 1
  17    8   10 am
  18    8   27 1
  19    9   28 1
  20    9   42 1
  21    9   43 1
  22   10   11 1
  23   10   12 2
  24   11   13 1
  25   11   14 1
  26   11   44 1
  27   13   17 1
  28   13   45 1
  29   13   46 1
  30   14   15 1
  31   14   47 1
  32   14   48 1
  33   15   16 1
  34   15   49 1
  35   15   50 1
  36   16   33 am
  37   16   17 1
  38   17   51 1
  39   17   52 1
  40   18   33 1
  41   18   19 ar
  42   18   23 ar
  43   19   20 ar
  44   19   53 1
  45   20   21 ar
  46   20   24 1
  47   21   22 ar
  48   21   26 1
  49   22   23 ar
  50   22   54 1
  51   23   55 1
  52   24   25 2
  53   24   56 1
  54   25   26 1
  55   26   57 1
  56   27   58 1
  57   27   59 1
  58   28   60 1
  59   28   61 1
  60   28   62 1
  61   29   30 1
  62   29   31 1
  63   29   32 1
  64   33   34 2
  65   33   35 2

#	End of record

