#	Name: ASD01200281
#	Creating user name:	WinNT
#	Creation time:	15. 06. 2019 19:08

#	Modifying user name:	WinNT
#	Modification time:	15. 06. 2019 19:08

#	Program:	/corina/corina34_cracker 3.40 0067  02.08.2006

@<TRIPOS>MOLECULE
ASD01200281
  35   37    0    0    0
SMALL
NO_CHARGES


@<TRIPOS>ATOM
   1 C1            -0.0170     1.4041     0.0098 C.ar    
   2 C2             0.0021    -0.0041     0.0020 C.ar    
   3 C3            -1.2292    -0.6880     0.0105 C.ar    
   4 N4            -2.3485     0.0272     0.0254 N.ar    
   5 C5            -2.3165     1.3483     0.0322 C.ar    
   6 N6            -1.1926     2.0306     0.0292 N.ar    
   7 N7             1.2841     1.8103    -0.0005 N.pl3   
   8 N8             2.0992     0.6714    -0.0144 N.2     
   9 C9             1.3572    -0.3992    -0.0130 C.2     
  10 C10            1.7499     3.1993     0.0021 C.3     
  11 N11           -1.2717    -2.0684     0.0030 N.pl3   
  12 N12           -2.5060    -2.7313     0.0117 N.am    
  13 C13           -2.5475    -4.0784     0.0044 C.2     
  14 C14           -3.8751    -4.7914     0.0137 C.3     
  15 O15           -1.5164    -4.7168    -0.0096 O.2     
  16 C16           -3.6455    -6.2808     0.0029 C.ar    
  17 C17           -3.5281    -6.9707     1.1950 C.ar    
  18 C18           -3.3175    -8.3368     1.1851 C.ar    
  19 C19           -3.2246    -9.0132    -0.0170 C.ar    
  20 C20           -3.3428    -8.3234    -1.2091 C.ar    
  21 C21           -3.5578    -6.9579    -1.1991 C.ar    
  22 H22           -3.2512     1.8893     0.0443 H       
  23 H23            1.7178    -1.4172    -0.0216 H       
  24 H24            1.8751     3.5387     1.0303 H       
  25 H25            2.7043     3.2635    -0.5205 H       
  26 H26            1.0168     3.8293    -0.5017 H       
  27 H27           -0.4470    -2.5790    -0.0082 H       
  28 H28           -3.3306    -2.2207     0.0229 H       
  29 H29           -4.4293    -4.5157     0.9109 H       
  30 H30           -4.4472    -4.5055    -0.8690 H       
  31 H31           -3.6007    -6.4423     2.1341 H       
  32 H32           -3.2251    -8.8757     2.1164 H       
  33 H33           -3.0593   -10.0804    -0.0247 H       
  34 H34           -3.2700    -8.8517    -2.1482 H       
  35 H35           -3.6502    -6.4190    -2.1305 H       
@<TRIPOS>BOND
   1    1    2 ar
   2    1    7 1
   3    1    6 ar
   4    2    3 ar
   5    2    9 1
   6    3    4 ar
   7    3   11 1
   8    4    5 ar
   9    5    6 ar
  10    5   22 1
  11    7    8 1
  12    7   10 1
  13    8    9 2
  14    9   23 1
  15   10   24 1
  16   10   25 1
  17   10   26 1
  18   11   12 1
  19   11   27 1
  20   12   13 am
  21   12   28 1
  22   13   14 1
  23   13   15 2
  24   14   16 1
  25   14   29 1
  26   14   30 1
  27   16   17 ar
  28   16   21 ar
  29   17   18 ar
  30   17   31 1
  31   18   19 ar
  32   18   32 1
  33   19   20 ar
  34   19   33 1
  35   20   21 ar
  36   20   34 1
  37   21   35 1

#	End of record

