#	Name: ASD07930783
#	Creating user name:	WinNT
#	Creation time:	15. 06. 2019 21:13

#	Modifying user name:	WinNT
#	Modification time:	15. 06. 2019 21:13

#	Program:	/corina/corina34_cracker 3.40 0067  02.08.2006

@<TRIPOS>MOLECULE
ASD07930783
  47   49    0    0    0
SMALL
NO_CHARGES


@<TRIPOS>ATOM
   1 C1            -1.0055     1.6150     0.5516 C.3     
   2 N2            -0.1142     0.2231    -1.9343 N.2     
   3 N3            -1.3718    -1.5619    -1.1015 N.pl3   
   4 C4            -1.0571    -2.6984    -0.2295 C.3     
   5 C5            -1.3119    -2.3012     1.2311 C.3     
   6 S6            -0.3232    -0.8179     1.6005 S.o2    
   7 N7            -0.6998     0.1987     0.3351 N.am    
   8 C8            -0.7101    -0.3627    -0.9339 C.2     
   9 C9             0.4128    -3.0852    -0.4047 C.3     
  10 C10           -1.9334    -3.8693    -0.5928 C.ar    
  11 C11           -2.3818    -4.0413    -1.8897 C.ar    
  12 C12           -3.1894    -5.1347    -2.1871 C.ar    
  13 N13           -3.5256    -6.0005    -1.2432 N.ar    
  14 C14           -3.1124    -5.8614     0.0022 C.ar    
  15 C15           -2.3041    -4.8032     0.3660 C.ar    
  16 O16           -0.8220    -0.1535     2.7534 O.2     
  17 O17            1.0638    -1.0845     1.4443 O.2     
  18 N18           -3.6477    -5.3196    -3.4867 N.pl3   
  19 C19           -4.5627    -6.3416    -3.7676 C.ar    
  20 C20           -4.5421    -6.9762    -5.0077 C.ar    
  21 C21           -5.4497    -7.9865    -5.2800 C.ar    
  22 C22           -6.3737    -8.3629    -4.3227 C.ar    
  23 C23           -6.3949    -7.7335    -3.0917 C.ar    
  24 C24           -5.4888    -6.7288    -2.8098 C.ar    
  25 O25           -3.6333    -6.6045    -5.9487 O.3     
  26 C26           -3.6709    -7.2990    -7.1970 C.3     
  27 H27           -0.0861     2.1978     0.4951 H       
  28 H28           -1.7007     1.9579    -0.2147 H       
  29 H29           -1.4570     1.7429     1.5354 H       
  30 H30            0.3465     1.0658    -1.7983 H       
  31 H31           -2.0411    -1.6544    -1.7975 H       
  32 H32           -2.3702    -2.0821     1.3731 H       
  33 H33           -1.0131    -3.1157     1.8909 H       
  34 H34            1.0455    -2.2382    -0.1397 H       
  35 H35            0.6460    -3.9298     0.2436 H       
  36 H36            0.5940    -3.3633    -1.4430 H       
  37 H37           -2.1092    -3.3363    -2.6611 H       
  38 H38           -3.4070    -6.5873     0.7457 H       
  39 H39           -1.9705    -4.6978     1.3878 H       
  40 H40           -3.3336    -4.7407    -4.1988 H       
  41 H41           -5.4359    -8.4802    -6.2405 H       
  42 H42           -7.0811    -9.1503    -4.5371 H       
  43 H43           -7.1187    -8.0307    -2.3472 H       
  44 H44           -5.5075    -6.2389    -1.8475 H       
  45 H45           -4.6471    -7.1594    -7.6613 H       
  46 H46           -2.8959    -6.9058    -7.8550 H       
  47 H47           -3.4982    -8.3617    -7.0268 H       
@<TRIPOS>BOND
   1    1    7 1
   2    1   27 1
   3    1   28 1
   4    1   29 1
   5    2    8 2
   6    2   30 1
   7    3    4 1
   8    3    8 1
   9    3   31 1
  10    4    5 1
  11    4    9 1
  12    4   10 1
  13    5    6 1
  14    5   32 1
  15    5   33 1
  16    6    7 am
  17    6   16 2
  18    6   17 2
  19    7    8 1
  20    9   34 1
  21    9   35 1
  22    9   36 1
  23   10   11 ar
  24   10   15 ar
  25   11   12 ar
  26   11   37 1
  27   12   13 ar
  28   12   18 1
  29   13   14 ar
  30   14   15 ar
  31   14   38 1
  32   15   39 1
  33   18   19 1
  34   18   40 1
  35   19   20 ar
  36   19   24 ar
  37   20   21 ar
  38   20   25 1
  39   21   22 ar
  40   21   41 1
  41   22   23 ar
  42   22   42 1
  43   23   24 ar
  44   23   43 1
  45   24   44 1
  46   25   26 1
  47   26   45 1
  48   26   46 1
  49   26   47 1

#	End of record

