#	Name: ASD07300665
#	Creating user name:	WinNT
#	Creation time:	15. 06. 2019 21:10

#	Modifying user name:	WinNT
#	Modification time:	15. 06. 2019 21:10

#	Program:	/corina/corina34_cracker 3.40 0067  02.08.2006

@<TRIPOS>MOLECULE
ASD07300665
  39   41    0    0    0
SMALL
NO_CHARGES


@<TRIPOS>ATOM
   1 C1            -0.0173     1.4133    -0.0105 C.2     
   2 C2             0.0021    -0.0041     0.0020 C.2     
   3 N3             1.1717     2.0844    -0.0176 N.pl3   
   4 N4             1.1569    -0.6392     0.0064 N.2     
   5 C5             2.3118     0.0281    -0.0006 C.2     
   6 C6             2.3392     1.3795    -0.0126 C.2     
   7 N7            -1.0053     2.2998    -0.0120 N.2     
   8 C8            -0.5067     3.5257    -0.0261 C.2     
   9 C9             0.8775     3.4280    -0.0292 C.2     
  10 C10            1.8333     4.5336    -0.0394 C.2     
  11 O11            1.4340     5.6829    -0.0492 O.2     
  12 O12            3.1586     4.2798    -0.0381 O.3     
  13 N13           -1.1864    -0.7178     0.0100 N.pl3   
  14 C14           -1.1900    -2.1846    -0.1073 C.3     
  15 C15           -2.0526    -2.7579     1.0227 C.3     
  16 O16           -3.3305    -2.1170     1.0109 O.3     
  17 C17           -3.2814    -0.7091     1.2547 C.3     
  18 C18           -2.4813    -0.0314     0.1422 C.3     
  19 C19           -1.3034     4.8048    -0.0323 C.3     
  20 C20            4.0353     5.4082    -0.0485 C.3     
  21 C21            5.4873     4.9260    -0.0452 C.3     
  22 H22            3.2417    -0.5211     0.0036 H       
  23 H23            3.2851     1.9008    -0.0181 H       
  24 H24           -1.6077    -2.4748    -1.0714 H       
  25 H25           -0.1713    -2.5624    -0.0194 H       
  26 H26           -2.1817    -3.8300     0.8742 H       
  27 H27           -1.5642    -2.5785     1.9805 H       
  28 H28           -4.2944    -0.3073     1.2730 H       
  29 H29           -2.7974    -0.5223     2.2133 H       
  30 H30           -2.3174     1.0161     0.3953 H       
  31 H31           -3.0312    -0.1010    -0.7963 H       
  32 H32           -1.4884     5.1226     0.9938 H       
  33 H33           -0.7435     5.5790    -0.5571 H       
  34 H34           -2.2544     4.6381    -0.5382 H       
  35 H35            3.8518     6.0026    -0.9436 H       
  36 H36            3.8530     6.0181     0.8363 H       
  37 H37            5.6707     4.3317     0.8498 H       
  38 H38            5.6696     4.3161    -0.9300 H       
  39 H39            6.1560     5.7867    -0.0532 H       
@<TRIPOS>BOND
   1    1    2 1
   2    1    3 1
   3    1    7 2
   4    2    4 2
   5    2   13 1
   6    3    6 1
   7    3    9 1
   8    4    5 1
   9    5    6 2
  10    5   22 1
  11    6   23 1
  12    7    8 1
  13    8    9 2
  14    8   19 1
  15    9   10 1
  16   10   11 2
  17   10   12 1
  18   12   20 1
  19   13   14 1
  20   13   18 1
  21   14   15 1
  22   14   24 1
  23   14   25 1
  24   15   16 1
  25   15   26 1
  26   15   27 1
  27   16   17 1
  28   17   18 1
  29   17   28 1
  30   17   29 1
  31   18   30 1
  32   18   31 1
  33   19   32 1
  34   19   33 1
  35   19   34 1
  36   20   21 1
  37   20   35 1
  38   20   36 1
  39   21   37 1
  40   21   38 1
  41   21   39 1

#	End of record

