#	Name: ASD03330634
#	Creating user name:	WinNT
#	Creation time:	15. 06. 2019 20:37

#	Modifying user name:	WinNT
#	Modification time:	15. 06. 2019 20:37

#	Program:	/corina/corina34_cracker 3.40 0067  02.08.2006

@<TRIPOS>MOLECULE
ASD03330634
  64   66    0    0    0
SMALL
NO_CHARGES


@<TRIPOS>ATOM
   1 C1            -0.3238     1.1646     0.8324 C.2     
   2 N2            -0.3561    -0.1677     1.0638 N.pl3   
   3 C3             0.9830     1.5503     0.8831 C.2     
   4 N4             1.7271     0.4512     1.1261 N.2     
   5 C5             0.9316    -0.5877     1.2305 C.2     
   6 C6             1.3592    -1.9798     1.4865 C.ar    
   7 C7             1.4917     2.9221     0.7042 C.2     
   8 O8             0.7172     3.8346     0.4885 O.2     
   9 C9             3.3209     4.5286     0.6017 C.3     
  10 N10            2.8153     3.1651     0.7796 N.am    
  11 C11            3.5022     4.8147    -0.8903 C.3     
  12 C12            2.1374     4.8012    -1.5817 C.3     
  13 C13            4.1519     6.1881    -1.0710 C.3     
  14 C14            4.3987     3.7409    -1.5103 C.3     
  15 C15            4.6466     4.6684     1.3047 C.2     
  16 N16            5.1839     5.8899     1.4930 N.am    
  17 O17            5.2298     3.6816     1.7010 O.2     
  18 C18            6.5055     6.0214     2.1115 C.3     
  19 C19           -1.5675    -0.9896     1.1334 C.3     
  20 C20           -2.4697    -0.6579    -0.0592 C.3     
  21 C21           -3.3816     0.5127     0.2946 C.3     
  22 N22           -2.7056     1.4524     1.1916 N.3     
  23 C23           -1.5184     2.0395     0.5531 C.3     
  24 C24           -3.6287     2.4992     1.6501 C.3     
  25 C25            2.6148    -2.4148     1.0568 C.ar    
  26 C26            3.0129    -3.7107     1.2945 C.ar    
  27 C27            2.1609    -4.5910     1.9663 C.ar    
  28 C28            0.9050    -4.1554     2.3965 C.ar    
  29 C29            0.5096    -2.8579     2.1631 C.ar    
  30 C30            2.5878    -5.9822     2.2212 C.2     
  31 O31            3.6804    -6.3612     1.8464 O.2     
  32 N32            1.7658    -6.8313     2.8692 N.am    
  33 H33            2.6092     5.2380     1.0239 H       
  34 H34            3.4330     2.4373     0.9517 H       
  35 H35            1.4988     5.5661    -1.1400 H       
  36 H36            2.2666     5.0050    -2.6446 H       
  37 H37            1.6746     3.8227    -1.4530 H       
  38 H38            5.1102     6.2078    -0.5520 H       
  39 H39            4.3096     6.3786    -2.1325 H       
  40 H40            3.4986     6.9563    -0.6571 H       
  41 H41            3.9358     2.7625    -1.3815 H       
  42 H42            4.5278     3.9448    -2.5732 H       
  43 H43            5.3710     3.7506    -1.0177 H       
  44 H44            4.6957     6.6821     1.2191 H       
  45 H45            6.7711     7.0763     2.1802 H       
  46 H46            6.4839     5.5863     3.1107 H       
  47 H47            7.2446     5.4994     1.5038 H       
  48 H48           -1.2944    -2.0443     1.1012 H       
  49 H49           -2.0984    -0.7780     2.0616 H       
  50 H50           -1.8528    -0.3904    -0.9171 H       
  51 H51           -3.0769    -1.5283    -0.3076 H       
  52 H52           -3.6673     1.0329    -0.6196 H       
  53 H53           -4.2783     0.1326     0.7842 H       
  54 H54           -1.3425     3.0363     0.9577 H       
  55 H55           -1.6783     2.1051    -0.5231 H       
  56 H56           -4.4601     2.0412     2.1859 H       
  57 H57           -3.1010     3.1834     2.3146 H       
  58 H58           -4.0099     3.0497     0.7900 H       
  59 H59            3.2734    -1.7343     0.5375 H       
  60 H60            3.9836    -4.0472     0.9615 H       
  61 H61            0.2462    -4.8357     2.9158 H       
  62 H62           -0.4610    -2.5210     2.4960 H       
  63 H63            0.8940    -6.5289     3.1683 H       
  64 H64            2.0460    -7.7447     3.0366 H       
@<TRIPOS>BOND
   1    1    2 1
   2    1    3 2
   3    1   23 1
   4    2   19 1
   5    2    5 1
   6    3    4 1
   7    3    7 1
   8    4    5 2
   9    5    6 1
  10    6   25 ar
  11    6   29 ar
  12    7    8 2
  13    7   10 am
  14    9   10 1
  15    9   11 1
  16    9   15 1
  17    9   33 1
  18   10   34 1
  19   11   12 1
  20   11   13 1
  21   11   14 1
  22   12   35 1
  23   12   36 1
  24   12   37 1
  25   13   38 1
  26   13   39 1
  27   13   40 1
  28   14   41 1
  29   14   42 1
  30   14   43 1
  31   15   16 am
  32   15   17 2
  33   16   18 1
  34   16   44 1
  35   18   45 1
  36   18   46 1
  37   18   47 1
  38   19   20 1
  39   19   48 1
  40   19   49 1
  41   20   21 1
  42   20   50 1
  43   20   51 1
  44   21   22 1
  45   21   52 1
  46   21   53 1
  47   22   23 1
  48   22   24 1
  49   23   54 1
  50   23   55 1
  51   24   56 1
  52   24   57 1
  53   24   58 1
  54   25   26 ar
  55   25   59 1
  56   26   27 ar
  57   26   60 1
  58   27   28 ar
  59   27   30 1
  60   28   29 ar
  61   28   61 1
  62   29   62 1
  63   30   31 2
  64   30   32 am
  65   32   63 1
  66   32   64 1

#	End of record

