#	Name: ASD01151111
#	Creating user name:	WinNT
#	Creation time:	15. 06. 2019 19:05

#	Modifying user name:	WinNT
#	Modification time:	15. 06. 2019 19:05

#	Program:	/corina/corina34_cracker 3.40 0067  02.08.2006

@<TRIPOS>MOLECULE
ASD01151111
  56   59    0    0    0
SMALL
NO_CHARGES


@<TRIPOS>ATOM
   1 C1            -0.0141     1.4131     0.2836 C.3     
   2 O2            -0.0033     0.0063     0.0329 O.3     
   3 C3            -1.2044    -0.6296     0.0328 C.ar    
   4 C4            -2.3680     0.0857     0.2633 C.ar    
   5 C5            -3.5901    -0.5589     0.2637 C.ar    
   6 C6            -3.6596    -1.9272     0.0333 C.ar    
   7 N7            -4.9023    -2.5746     0.0347 N.am    
   8 C8            -5.9907    -1.9449    -0.4504 C.2     
   9 C9            -7.3045    -2.6768    -0.5462 C.3     
  10 O10           -5.9128    -0.7890    -0.8098 O.2     
  11 C11           -2.5015    -2.6529    -0.1985 C.ar    
  12 C12           -1.2680    -2.0064    -0.2055 C.ar    
  13 C13           -0.0265    -2.7756    -0.4587 C.2     
  14 N14            1.1362    -2.1661    -0.4543 N.2     
  15 N15            2.3360    -2.8417    -0.6867 N.am    
  16 C16            3.5962    -2.0949    -0.6662 C.3     
  17 H17            4.4247    -2.7747    -0.8654 H       
  18 C18            3.7848    -1.4503     0.7085 C.3     
  19 C19            3.5615    -1.0218    -1.7237 C.ar    
  20 C20            2.4030    -0.2983    -1.9365 C.ar    
  21 C21            2.3711     0.6860    -2.9065 C.ar    
  22 C22            3.4979     0.9471    -3.6635 C.ar    
  23 C23            4.6567     0.2242    -3.4501 C.ar    
  24 C24            4.6899    -0.7572    -2.4771 C.ar    
  25 C25            3.4629     2.0195    -4.7217 C.3     
  26 F26            3.8435     3.2425    -4.1590 F       
  27 F27            4.3468     1.6856    -5.7534 F       
  28 F28            2.1658     2.1259    -5.2350 F       
  29 C29            2.3575    -4.1711    -0.9297 C.2     
  30 O30            3.4127    -4.7478    -1.1301 O.2     
  31 C31            1.1021    -4.9010    -0.9476 C.2     
  32 C32            0.6586    -6.2745    -1.1567 C.2     
  33 C33            1.5159    -7.4780    -1.4528 C.3     
  34 N34           -0.6385    -6.2380    -1.0320 N.2     
  35 O35           -1.0623    -5.1296    -0.7921 O.3     
  36 C36           -0.0953    -4.2103    -0.7069 C.2     
  37 H37            1.0065     1.7950     0.2555 H       
  38 H38           -0.6104     1.9136    -0.4793 H       
  39 H39           -0.4465     1.6038     1.2658 H       
  40 H40           -2.3199     1.1495     0.4434 H       
  41 H41           -4.4946     0.0029     0.4442 H       
  42 H42           -4.9792    -3.4759     0.3847 H       
  43 H43           -7.8640    -2.5419     0.3796 H       
  44 H44           -7.8819    -2.2792    -1.3808 H       
  45 H45           -7.1180    -3.7387    -0.7065 H       
  46 H46           -2.5561    -3.7165    -0.3775 H       
  47 H47            3.8099    -2.2264     1.4734 H       
  48 H48            4.7224    -0.8947     0.7237 H       
  49 H49            2.9563    -0.7705     0.9077 H       
  50 H50            1.5226    -0.5024    -1.3451 H       
  51 H51            1.4658     1.2507    -3.0732 H       
  52 H52            5.5370     0.4280    -4.0418 H       
  53 H53            5.5963    -1.3194    -2.3079 H       
  54 H54            1.8139    -7.9509    -0.5171 H       
  55 H55            0.9493    -8.1885    -2.0547 H       
  56 H56            2.4046    -7.1650    -2.0009 H       
@<TRIPOS>BOND
   1    1    2 1
   2    1   37 1
   3    1   38 1
   4    1   39 1
   5    2    3 1
   6    3   12 ar
   7    3    4 ar
   8    4    5 ar
   9    4   40 1
  10    5    6 ar
  11    5   41 1
  12    6    7 1
  13    6   11 ar
  14    7    8 am
  15    7   42 1
  16    8    9 1
  17    8   10 2
  18    9   43 1
  19    9   44 1
  20    9   45 1
  21   11   12 ar
  22   11   46 1
  23   12   13 1
  24   13   36 1
  25   13   14 2
  26   14   15 1
  27   15   16 1
  28   15   29 am
  29   16   17 1
  30   16   18 1
  31   16   19 1
  32   18   47 1
  33   18   48 1
  34   18   49 1
  35   19   24 ar
  36   19   20 ar
  37   20   21 ar
  38   20   50 1
  39   21   22 ar
  40   21   51 1
  41   22   23 ar
  42   22   25 1
  43   23   24 ar
  44   23   52 1
  45   24   53 1
  46   25   26 1
  47   25   27 1
  48   25   28 1
  49   29   30 2
  50   29   31 1
  51   31   36 2
  52   31   32 1
  53   32   33 1
  54   32   34 2
  55   33   54 1
  56   33   55 1
  57   33   56 1
  58   34   35 1
  59   35   36 1

#	End of record

