#	Name: ASD01810887
#	Creating user name:	WinNT
#	Creation time:	15. 06. 2019 19:25

#	Modifying user name:	WinNT
#	Modification time:	15. 06. 2019 19:25

#	Program:	/corina/corina34_cracker 3.40 0067  02.08.2006

@<TRIPOS>MOLECULE
ASD01810887
  52   56    0    0    0
SMALL
NO_CHARGES


@<TRIPOS>ATOM
   1 C1            -0.0170     1.4035     0.0098 C.ar    
   2 C2             0.0021    -0.0041     0.0020 C.ar    
   3 C3             1.2240    -0.6955    -0.0131 C.ar    
   4 C4             2.4054    -0.0325    -0.0199 C.ar    
   5 C5             2.4529     1.3757    -0.0126 C.ar    
   6 C6             3.6806     2.0620    -0.0195 C.ar    
   7 C7             3.6578     3.4288    -0.0119 C.ar    
   8 C8             2.4399     4.1023     0.0022 C.ar    
   9 N9             1.2971     3.4563     0.0091 N.ar    
  10 C10            1.2528     2.1263     0.0015 C.ar    
  11 C11           -1.2812    -0.7141     0.0106 C.2     
  12 N12           -2.4226     0.0049     0.0255 N.am    
  13 C13           -2.4070     1.3678     0.0325 C.2     
  14 C14           -1.2603     2.0731     0.0311 C.2     
  15 O15           -1.3159    -1.9320     0.0041 O.2     
  16 C16            3.6928    -0.8157    -0.0351 C.3     
  17 C17            3.8172    -2.0688     2.1341 C.ar    
  18 C18            4.1986    -0.9783     1.3751 C.ar    
  19 C19            5.0526    -0.0363     1.9275 C.ar    
  20 C20            5.4930    -0.2272     3.2285 C.ar    
  21 C21            5.0691    -1.3421     3.9261 C.ar    
  22 N22            4.2557    -2.2178     3.3687 N.ar    
  23 C23           -3.7092    -0.6957     0.0338 C.3     
  24 C24           -4.5138    -0.2991    -1.2057 C.3     
  25 C25           -5.8574    -1.0308    -1.1971 C.3     
  26 C26           -6.6384    -0.6483     0.0618 C.3     
  27 C27           -5.8338    -1.0448     1.3013 C.3     
  28 C28           -4.4901    -0.3131     1.2926 C.3     
  29 O29           -3.7844    -0.6564    -2.3815 O.3     
  30 H30            1.2221    -1.7755    -0.0190 H       
  31 H31            4.6166     1.5233    -0.0302 H       
  32 H32            4.5835     3.9851    -0.0166 H       
  33 H33            2.4349     5.1823     0.0081 H       
  34 H34           -3.3466     1.9001     0.0444 H       
  35 H35           -1.2913     3.1526     0.0371 H       
  36 H36            3.5154    -1.7980    -0.4730 H       
  37 H37            4.4356    -0.2823    -0.6283 H       
  38 H38            3.1487    -2.8048     1.7126 H       
  39 H39            5.3676     0.8256     1.3581 H       
  40 H40            6.1592     0.4863     3.6905 H       
  41 H41            5.4077    -1.4980     4.9398 H       
  42 H42           -3.5369    -1.7719     0.0261 H       
  43 H43           -4.6861     0.7771    -1.1980 H       
  44 H44           -6.4307    -0.7483    -2.0801 H       
  45 H45           -5.6852    -2.1071    -1.2047 H       
  46 H46           -6.8107     0.4280     0.0695 H       
  47 H47           -7.5956    -1.1695     0.0680 H       
  48 H48           -6.3901    -0.7723     2.1981 H       
  49 H49           -5.6615    -2.1211     1.2936 H       
  50 H50           -3.9169    -0.5956     2.1756 H       
  51 H51           -4.6624     0.7631     1.3003 H       
  52 H52           -4.2358    -0.4338    -3.2072 H       
@<TRIPOS>BOND
   1    1    2 ar
   2    1   10 ar
   3    1   14 1
   4    2    3 ar
   5    2   11 1
   6    3    4 ar
   7    3   30 1
   8    4    5 ar
   9    4   16 1
  10    5    6 ar
  11    5   10 ar
  12    6    7 ar
  13    6   31 1
  14    7    8 ar
  15    7   32 1
  16    8    9 ar
  17    8   33 1
  18    9   10 ar
  19   11   12 am
  20   11   15 2
  21   12   13 1
  22   12   23 1
  23   13   14 2
  24   13   34 1
  25   14   35 1
  26   16   18 1
  27   16   36 1
  28   16   37 1
  29   17   18 ar
  30   17   22 ar
  31   17   38 1
  32   18   19 ar
  33   19   20 ar
  34   19   39 1
  35   20   21 ar
  36   20   40 1
  37   21   22 ar
  38   21   41 1
  39   23   24 1
  40   23   28 1
  41   23   42 1
  42   24   25 1
  43   24   29 1
  44   24   43 1
  45   25   26 1
  46   25   44 1
  47   25   45 1
  48   26   27 1
  49   26   46 1
  50   26   47 1
  51   27   28 1
  52   27   48 1
  53   27   49 1
  54   28   50 1
  55   28   51 1
  56   29   52 1

#	End of record

