#	Name: ASD01120023
#	Creating user name:	WinNT
#	Creation time:	15. 06. 2019 18:58

#	Modifying user name:	WinNT
#	Modification time:	15. 06. 2019 18:58

#	Program:	/corina/corina34_cracker 3.40 0067  02.08.2006

@<TRIPOS>MOLECULE
ASD01120023
  52   55    0    0    0
SMALL
NO_CHARGES


@<TRIPOS>ATOM
   1 C1            -0.0905     1.3502     0.6499 C.ar    
   2 C2            -0.0522    -0.0389     0.4659 C.ar    
   3 C3            -1.1844    -0.7311     0.0969 C.ar    
   4 C4            -2.3851    -0.0372    -0.0958 C.ar    
   5 C5            -2.4161     1.3670     0.0921 C.ar    
   6 C6            -1.2524     2.0462     0.4722 C.ar    
   7 N7            -3.5158    -0.6646    -0.4559 N.ar    
   8 C8            -4.6258     0.0126    -0.6294 C.ar    
   9 N9            -4.7020     1.3238    -0.4659 N.ar    
  10 C10           -3.6440     2.0408    -0.1104 C.ar    
  11 N11           -3.7382     3.4079     0.0570 N.pl3   
  12 C12           -4.9822     4.0392    -0.0337 C.ar    
  13 C13           -6.1282     3.3762     0.3791 C.ar    
  14 C14           -7.3650     4.0093     0.2872 C.ar    
  15 C15           -7.4444     5.3054    -0.2188 C.ar    
  16 C16           -6.2988     5.9589    -0.6278 C.ar    
  17 C17           -5.0703     5.3338    -0.5322 C.ar    
  18 C18           -8.5954     3.3055     0.7266 C.2     
  19 O19            1.0403     2.0115     1.0147 O.3     
  20 O20            1.1142    -0.7096     0.6531 O.3     
  21 C21           -9.8305     3.8794     0.6581 C.2     
  22 S22          -10.9916     2.7715     1.2495 S.3     
  23 C23           -9.7274     1.5862     1.5576 C.2     
  24 N24           -8.5749     2.0814     1.2052 N.2     
  25 C25            0.9375     3.4264     1.1867 C.3     
  26 C26            2.3000     3.9910     1.5939 C.3     
  27 C27            1.0891    -2.1240     0.4504 C.3     
  28 C28            2.4831    -2.7006     0.7054 C.3     
  29 C29           -9.9400     0.2417     2.1202 C.2     
  30 N30          -11.1838    -0.1650     2.4426 N.am    
  31 O31           -8.9931    -0.5015     2.2939 O.2     
  32 H32           -1.1462    -1.8013    -0.0431 H       
  33 H33           -1.2714     3.1163     0.6165 H       
  34 H34           -5.5173    -0.5238    -0.9191 H       
  35 H35           -2.9412     3.9305     0.2376 H       
  36 H36           -6.0617     2.3717     0.7702 H       
  37 H37           -8.4024     5.7987    -0.2915 H       
  38 H38           -6.3627     6.9633    -1.0196 H       
  39 H39           -4.1772     5.8493    -0.8531 H       
  40 H40          -10.0413     4.8728     0.2904 H       
  41 H41            0.6198     3.8842     0.2498 H       
  42 H42            0.2061     3.6457     1.9646 H       
  43 H43            2.6177     3.5332     2.5307 H       
  44 H44            3.0314     3.7717     0.8160 H       
  45 H45            2.2216     5.0702     1.7251 H       
  46 H46            0.3767    -2.5772     1.1397 H       
  47 H47            0.7891    -2.3387    -0.5753 H       
  48 H48            3.1955    -2.2474     0.0160 H       
  49 H49            2.7831    -2.4859     1.7310 H       
  50 H50            2.4639    -3.7794     0.5507 H       
  51 H51          -11.9390     0.4278     2.3041 H       
  52 H52          -11.3238    -1.0504     2.8132 H       
@<TRIPOS>BOND
   1    1    2 ar
   2    1   19 1
   3    1    6 ar
   4    2    3 ar
   5    2   20 1
   6    3    4 ar
   7    3   32 1
   8    4    5 ar
   9    4    7 ar
  10    5    6 ar
  11    5   10 ar
  12    6   33 1
  13    7    8 ar
  14    8    9 ar
  15    8   34 1
  16    9   10 ar
  17   10   11 1
  18   11   12 1
  19   11   35 1
  20   12   13 ar
  21   12   17 ar
  22   13   14 ar
  23   13   36 1
  24   14   15 ar
  25   14   18 1
  26   15   16 ar
  27   15   37 1
  28   16   17 ar
  29   16   38 1
  30   17   39 1
  31   18   21 2
  32   18   24 1
  33   19   25 1
  34   20   27 1
  35   21   22 1
  36   21   40 1
  37   22   23 1
  38   23   24 2
  39   23   29 1
  40   25   26 1
  41   25   41 1
  42   25   42 1
  43   26   43 1
  44   26   44 1
  45   26   45 1
  46   27   28 1
  47   27   46 1
  48   27   47 1
  49   28   48 1
  50   28   49 1
  51   28   50 1
  52   29   30 am
  53   29   31 2
  54   30   51 1
  55   30   52 1

#	End of record

