#	Name: ASD01410681
#	Creating user name:	WinNT
#	Creation time:	15. 06. 2019 19:18

#	Modifying user name:	WinNT
#	Modification time:	15. 06. 2019 19:18

#	Program:	/corina/corina34_cracker 3.40 0067  02.08.2006

@<TRIPOS>MOLECULE
ASD01410681
  64   67    0    0    0
SMALL
NO_CHARGES


@<TRIPOS>ATOM
   1 C1             0.1067    -1.6923    -1.4674 C.ar    
   2 C2             0.3807    -2.3177    -0.2590 C.ar    
   3 C3             1.6930    -2.4539     0.1490 C.ar    
   4 N4             2.6830    -1.9976    -0.5941 N.ar    
   5 C5             2.4620    -1.3960    -1.7515 C.ar    
   6 C6             1.1672    -1.2249    -2.2242 C.ar    
   7 O7             3.5100    -0.9420    -2.4836 O.3     
   8 C8             4.7555    -1.0461    -1.9482 C.ar    
   9 C9             5.3571    -2.2935    -1.8316 C.ar    
  10 C10            6.6211    -2.4106    -1.2900 C.ar    
  11 C11            7.3013    -1.2805    -0.8573 C.ar    
  12 C12            6.6993    -0.0180    -0.9723 C.ar    
  13 C13            5.4216     0.0902    -1.5267 C.ar    
  14 N14            8.5771    -1.3993    -0.3103 N.am    
  15 C15            9.6329    -1.6478    -1.1103 C.2     
  16 C16            8.7710    -1.2542     1.1346 C.3     
  17 O17           10.7267    -1.8609    -0.6245 O.2     
  18 C18            9.4609    -1.6611    -2.5776 C.ar    
  19 C19           10.2567    -2.4917    -3.3691 C.ar    
  20 C20           10.0916    -2.4997    -4.7381 C.ar    
  21 C21            9.1389    -1.6857    -5.3283 C.ar    
  22 C22            8.3467    -0.8593    -4.5485 C.ar    
  23 C23            8.4979    -0.8474    -3.1779 C.ar    
  24 C24            9.8484    -0.2011     1.4013 C.3     
  25 C25            9.2101    -2.5946     1.7274 C.3     
  26 C26           -0.7419    -2.8421     0.5989 C.3     
  27 O27            8.1409    -3.5364     1.6193 O.3     
  28 C28            8.4487    -4.8283     2.1468 C.3     
  29 N29           -1.0313    -4.2299     0.2297 N.pl3   
  30 Cl30           8.9372    -1.7008    -7.0525 Cl      
  31 N31           -1.8754    -4.5849    -0.6732 N.2     
  32 N32           -0.4718    -5.2590     0.7605 N.2     
  33 C33           -0.9608    -6.3414     0.1989 C.2     
  34 C34           -1.8870    -5.8965    -0.7472 C.2     
  35 C35            0.9202    -0.5391    -3.5432 C.3     
  36 F36           -0.4554    -0.4911    -3.7935 F       
  37 F37            1.4310     0.7625    -3.4949 F       
  38 F38            1.5557    -1.2518    -4.5656 F       
  39 C39            7.4134     1.1877    -0.5157 C.2     
  40 O40            8.5638     1.1043    -0.1334 O.2     
  41 O41            6.7904     2.3826    -0.5221 O.3     
  42 H42           -0.9105    -1.5770    -1.8114 H       
  43 H43            1.9116    -2.9397     1.0884 H       
  44 H44            4.8325    -3.1762    -2.1663 H       
  45 H45            7.0818    -3.3835    -1.2024 H       
  46 H46            4.9519     1.0583    -1.6189 H       
  47 H47            7.8349    -0.9415     1.5972 H       
  48 H48           11.0004    -3.1263    -2.9101 H       
  49 H49           10.7065    -3.1416    -5.3514 H       
  50 H50            7.6058    -0.2265    -5.0144 H       
  51 H51            7.8797    -0.2026    -2.5709 H       
  52 H52            9.4037     0.7931     1.3562 H       
  53 H53           10.2774    -0.3627     2.3902 H       
  54 H54           10.6314    -0.2835     0.6476 H       
  55 H55           10.0780    -2.9660     1.1824 H       
  56 H56            9.4707    -2.4596     2.7772 H       
  57 H57           -0.4483    -2.7988     1.6477 H       
  58 H58           -1.6320    -2.2320     0.4452 H       
  59 H59            7.5867    -5.4846     2.0270 H       
  60 H60            9.3008    -5.2461     1.6105 H       
  61 H61            8.6935    -4.7397     3.2053 H       
  62 H62           -0.6980    -7.3651     0.4210 H       
  63 H63           -2.4898    -6.5059    -1.4043 H       
  64 H64            7.2995     3.1447    -0.2135 H       
@<TRIPOS>BOND
   1    1    2 ar
   2    1    6 ar
   3    1   42 1
   4    2    3 ar
   5    2   26 1
   6    3    4 ar
   7    3   43 1
   8    4    5 ar
   9    5    6 ar
  10    5    7 1
  11    6   35 1
  12    7    8 1
  13    8    9 ar
  14    8   13 ar
  15    9   10 ar
  16    9   44 1
  17   10   11 ar
  18   10   45 1
  19   11   12 ar
  20   11   14 1
  21   12   13 ar
  22   12   39 1
  23   13   46 1
  24   14   15 am
  25   14   16 1
  26   15   17 2
  27   15   18 1
  28   16   24 1
  29   16   25 1
  30   16   47 1
  31   18   19 ar
  32   18   23 ar
  33   19   20 ar
  34   19   48 1
  35   20   21 ar
  36   20   49 1
  37   21   22 ar
  38   21   30 1
  39   22   23 ar
  40   22   50 1
  41   23   51 1
  42   24   52 1
  43   24   53 1
  44   24   54 1
  45   25   27 1
  46   25   55 1
  47   25   56 1
  48   26   29 1
  49   26   57 1
  50   26   58 1
  51   27   28 1
  52   28   59 1
  53   28   60 1
  54   28   61 1
  55   29   32 1
  56   29   31 1
  57   31   34 2
  58   32   33 2
  59   33   34 1
  60   33   62 1
  61   34   63 1
  62   35   36 1
  63   35   37 1
  64   35   38 1
  65   39   40 2
  66   39   41 1
  67   41   64 1

#	End of record

