#	Name: ASD01816587
#	Creating user name:	WinNT
#	Creation time:	15. 06. 2019 19:35

#	Modifying user name:	WinNT
#	Modification time:	15. 06. 2019 19:35

#	Program:	/corina/corina34_cracker 3.40 0067  02.08.2006

@<TRIPOS>MOLECULE
ASD01816587
  60   65    0    0    0
SMALL
NO_CHARGES


@<TRIPOS>ATOM
   1 C1             0.0027     1.3732    -0.1211 C.ar    
   2 C2             0.0305    -0.0108    -0.1270 C.ar    
   3 C3             1.2246    -0.6923    -0.0091 C.ar    
   4 C4             2.4195     0.0076     0.1171 C.ar    
   5 C5             2.3935     1.4118     0.1229 C.ar    
   6 C6             1.1806     2.0919     0.0036 C.ar    
   7 N7             3.6191    -0.6729     0.2361 N.pl3   
   8 C8             4.8030    -0.0515     0.3607 C.2     
   9 C9             4.9012     1.3174     0.3785 C.2     
  10 C10            3.6717     2.1341     0.2577 C.2     
  11 C11            5.9896     2.2830     0.4945 C.2     
  12 N12            5.4162     3.5046     0.4423 N.am    
  13 N13            4.0314     3.3851     0.3008 N.2     
  14 C14            6.1103     4.7176     0.5194 C.ar    
  15 O15            7.1786     2.0360     0.6149 O.2     
  16 C16            3.5960    -2.1377     0.2260 C.3     
  17 C17            3.7324    -2.6325    -1.1909 C.ar    
  18 C18            4.9869    -2.8787    -1.7180 C.ar    
  19 C19            5.1152    -3.3317    -3.0165 C.ar    
  20 C20            3.9830    -3.5404    -3.7924 C.ar    
  21 C21            2.7248    -3.2928    -3.2603 C.ar    
  22 C22            2.6026    -2.8447    -1.9595 C.ar    
  23 C23            5.7646     5.6575     1.4822 C.ar    
  24 N24            4.1099    -3.9998    -5.1108 N.pl3   
  25 C25            7.1499     4.9818    -0.3628 C.ar    
  26 C26            7.8328     6.1798    -0.2841 C.ar    
  27 C27            7.4824     7.1156     0.6717 C.ar    
  28 C28            6.4513     6.8532     1.5555 C.ar    
  29 O29            1.1552     3.4503     0.0086 O.3     
  30 C30            3.0945    -4.2431    -5.9701 C.2     
  31 C31            3.6344    -4.6708    -7.1348 C.2     
  32 C32            5.0253    -4.6900    -6.9836 C.2     
  33 N33            5.3115    -4.2824    -5.7733 N.2     
  34 C34            1.3446     4.0679    -1.1684 C.2     
  35 O35            1.6091     3.4213    -2.1542 O.2     
  36 C36            1.2274     5.5675    -1.2599 C.3     
  37 C37            4.6410     5.3726     2.4452 C.3     
  38 H38           -0.9385     1.8937    -0.2183 H       
  39 H39           -0.8925    -0.5631    -0.2246 H       
  40 H40            1.2311    -1.7722    -0.0145 H       
  41 H41            5.7013    -0.6444     0.4497 H       
  42 H42            4.4233    -2.5183     0.8250 H       
  43 H43            2.6528    -2.4891     0.6443 H       
  44 H44            5.8673    -2.7161    -1.1139 H       
  45 H45            6.0952    -3.5232    -3.4278 H       
  46 H46            1.8422    -3.4538    -3.8616 H       
  47 H47            1.6242    -2.6519    -1.5449 H       
  48 H48            7.4242     4.2512    -1.1094 H       
  49 H49            8.6415     6.3858    -0.9696 H       
  50 H50            8.0182     8.0514     0.7314 H       
  51 H51            6.1799     7.5863     2.3006 H       
  52 H52            2.0417    -4.1189    -5.7636 H       
  53 H53            3.0882    -4.9484    -8.0242 H       
  54 H54            5.7399    -4.9858    -7.7373 H       
  55 H55            0.9855     5.9737    -0.2778 H       
  56 H56            2.1737     5.9857    -1.6030 H       
  57 H57            0.4381     5.8279    -1.9652 H       
  58 H58            5.0389     4.8793     3.3320 H       
  59 H59            4.1636     6.3091     2.7337 H       
  60 H60            3.9079     4.7235     1.9664 H       
@<TRIPOS>BOND
   1    1    2 ar
   2    1    6 ar
   3    1   38 1
   4    2    3 ar
   5    2   39 1
   6    3    4 ar
   7    3   40 1
   8    4    5 ar
   9    4    7 1
  10    5    6 ar
  11    5   10 1
  12    6   29 1
  13    7    8 1
  14    7   16 1
  15    8    9 2
  16    8   41 1
  17    9   10 1
  18    9   11 1
  19   10   13 2
  20   11   12 am
  21   11   15 2
  22   12   13 1
  23   12   14 1
  24   14   25 ar
  25   14   23 ar
  26   16   17 1
  27   16   42 1
  28   16   43 1
  29   17   18 ar
  30   17   22 ar
  31   18   19 ar
  32   18   44 1
  33   19   20 ar
  34   19   45 1
  35   20   21 ar
  36   20   24 1
  37   21   22 ar
  38   21   46 1
  39   22   47 1
  40   23   37 1
  41   23   28 ar
  42   24   30 1
  43   24   33 1
  44   25   26 ar
  45   25   48 1
  46   26   27 ar
  47   26   49 1
  48   27   28 ar
  49   27   50 1
  50   28   51 1
  51   29   34 1
  52   30   31 2
  53   30   52 1
  54   31   32 1
  55   31   53 1
  56   32   33 2
  57   32   54 1
  58   34   35 2
  59   34   36 1
  60   36   55 1
  61   36   56 1
  62   36   57 1
  63   37   58 1
  64   37   59 1
  65   37   60 1

#	End of record

