#	Name: ASD00461056
#	Creating user name:	WinNT
#	Creation time:	15. 06. 2019 18:36

#	Modifying user name:	WinNT
#	Modification time:	15. 06. 2019 18:36

#	Program:	/corina/corina34_cracker 3.40 0067  02.08.2006

@<TRIPOS>MOLECULE
ASD00461056
  32   33    0    0    0
SMALL
NO_CHARGES


@<TRIPOS>ATOM
   1 C1            -0.0171     1.4133     0.0098 C.ar    
   2 C2             0.0021    -0.0041     0.0020 C.ar    
   3 C3            -1.2135    -0.7095     0.0098 C.ar    
   4 C4            -2.3894    -0.0246     0.0247 C.ar    
   5 C5            -2.4083     1.3691     0.0320 C.ar    
   6 C6            -1.2513     2.0856     0.0194 C.ar    
   7 C7             1.1979     2.1187     0.0020 C.ar    
   8 C8             2.3742     1.4339    -0.0129 C.ar    
   9 C9             2.3931     0.0407    -0.0205 C.ar    
  10 C10            1.2359    -0.6761    -0.0138 C.ar    
  11 C11            3.6755     2.1939    -0.0217 C.3     
  12 C12            4.1299     2.4439     1.4177 C.3     
  13 N13            5.3984     3.1847     1.4091 N.3     
  14 C14            3.0666     3.2618     2.1534 C.3     
  15 C15            4.3265     1.1044     2.1304 C.3     
  16 H16           -1.2144    -1.7895     0.0036 H       
  17 H17           -3.3220    -0.5691     0.0306 H       
  18 H18           -3.3553     1.8881     0.0435 H       
  19 H19           -1.2813     3.1651     0.0256 H       
  20 H20            1.1986     3.1987     0.0074 H       
  21 H21            3.3402    -0.4784    -0.0326 H       
  22 H22            1.2659    -1.7556    -0.0198 H       
  23 H23            4.4330     1.6112    -0.5459 H       
  24 H24            3.5355     3.1482    -0.5295 H       
  25 H25            5.7198     3.3624     2.3489 H       
  26 H26            6.0995     2.6950     0.8736 H       
  27 H27            2.1254     2.7121     2.1598 H       
  28 H28            3.3903     3.4399     3.1789 H       
  29 H29            2.9265     4.2161     1.6457 H       
  30 H30            5.0840     0.5217     1.6062 H       
  31 H31            4.6502     1.2825     3.1559 H       
  32 H32            3.3853     0.5546     2.1368 H       
@<TRIPOS>BOND
   1    1    2 ar
   2    1    7 ar
   3    1    6 ar
   4    2    3 ar
   5    2   10 ar
   6    3    4 ar
   7    3   16 1
   8    4    5 ar
   9    4   17 1
  10    5    6 ar
  11    5   18 1
  12    6   19 1
  13    7    8 ar
  14    7   20 1
  15    8    9 ar
  16    8   11 1
  17    9   10 ar
  18    9   21 1
  19   10   22 1
  20   11   12 1
  21   11   23 1
  22   11   24 1
  23   12   13 1
  24   12   14 1
  25   12   15 1
  26   13   25 1
  27   13   26 1
  28   14   27 1
  29   14   28 1
  30   14   29 1
  31   15   30 1
  32   15   31 1
  33   15   32 1

#	End of record

