#	Name: ASD08170015
#	Creating user name:	WinNT
#	Creation time:	15. 06. 2019 21:17

#	Modifying user name:	WinNT
#	Modification time:	15. 06. 2019 21:17

#	Program:	/corina/corina34_cracker 3.40 0067  02.08.2006

@<TRIPOS>MOLECULE
ASD08170015
  72   75    0    0    0
SMALL
NO_CHARGES


@<TRIPOS>ATOM
   1 C1             0.8366     0.6342    -2.6588 C.ar    
   2 C2             0.7452    -0.6766    -2.2327 C.ar    
   3 C3             1.4871    -1.1076    -1.1467 C.ar    
   4 C4             2.3228    -0.2348    -0.4744 C.ar    
   5 C5             2.4244     1.0863    -0.8853 C.ar    
   6 C6             1.6788     1.5192    -1.9906 C.ar    
   7 N7             3.2552     1.9676    -0.1860 N.am    
   8 C8             3.7281     3.2086    -0.8121 C.3     
   9 C9             2.5543     3.8357    -1.5451 C.2     
  10 C10            1.8059     2.9256    -2.4483 C.2     
  11 C11            2.2185     5.1167    -1.3873 C.2     
  12 C12            4.2403     4.1689     0.2632 C.3     
  13 C13            4.8499     2.8938    -1.8038 C.3     
  14 C14            3.6253     1.6748     1.0764 C.2     
  15 O15            4.4741     2.3449     1.6320 O.2     
  16 C16            2.9992     0.5390     1.7855 C.ar    
  17 C17            3.7533    -0.2399     2.6650 C.ar    
  18 C18            3.1627    -1.2982     3.3239 C.ar    
  19 C19            1.8262    -1.5886     3.1144 C.ar    
  20 C20            1.0732    -0.8209     2.2438 C.ar    
  21 C21            1.6499     0.2441     1.5831 C.ar    
  22 C22            1.1879    -2.7466     3.8374 C.3     
  23 C23            1.2872    -2.5221     5.3476 C.3     
  24 C24           -0.2839    -2.8514     3.4331 C.3     
  25 C25            1.9125    -4.0418     3.4656 C.3     
  26 C26            1.3829    -2.5408    -0.6925 C.3     
  27 C27            1.2602     3.3616    -3.6432 C.2     
  28 S28            1.1795     5.0254    -4.2085 S.3     
  29 C29            0.3815     4.8157    -5.7500 C.2     
  30 C30            0.0704     3.5601    -6.0659 C.2     
  31 S31            0.5246     2.3546    -4.8838 S.3     
  32 C32            0.0743     5.9497    -6.6376 C.2     
  33 O33           -0.9612     6.5696    -6.4952 O.2     
  34 O34            0.9417     6.3002    -7.6083 O.3     
  35 C35            0.5735     7.4278    -8.4457 C.3     
  36 C36           -0.6042     3.2103    -7.3272 C.2     
  37 O37           -0.8062     4.0661    -8.1660 O.2     
  38 O38           -0.9977     1.9405    -7.5515 O.3     
  39 C39           -1.6565     1.6682    -8.8165 C.3     
  40 H40            0.2611     0.9699    -3.5088 H       
  41 H41            0.0931    -1.3664    -2.7479 H       
  42 H42            2.8968    -0.5820     0.3720 H       
  43 H43            2.7884     5.7461    -0.7199 H       
  44 H44            1.3766     5.5247    -1.9270 H       
  45 H45            5.2038     3.8189     0.6339 H       
  46 H46            4.3556     5.1650    -0.1642 H       
  47 H47            3.5265     4.2071     1.0861 H       
  48 H48            4.4747     2.2212    -2.5752 H       
  49 H49            5.1969     3.8183    -2.2653 H       
  50 H50            5.6771     2.4176    -1.2775 H       
  51 H51            4.7968    -0.0146     2.8288 H       
  52 H52            3.7449    -1.9016     4.0046 H       
  53 H53            0.0307    -1.0533     2.0842 H       
  54 H54            1.0611     0.8426     0.9038 H       
  55 H55            0.7710    -1.5994     5.6125 H       
  56 H56            0.8256    -3.3597     5.8706 H       
  57 H57            2.3358    -2.4474     5.6357 H       
  58 H58           -0.3547    -3.0113     2.3572 H       
  59 H59           -0.7456    -3.6890     3.9560 H       
  60 H60           -0.8001    -1.9287     3.6980 H       
  61 H61            2.9611    -3.9671     3.7536 H       
  62 H62            1.4508    -4.8794     3.9885 H       
  63 H63            1.8417    -4.2017     2.3897 H       
  64 H64            2.0651    -3.1578    -1.2773 H       
  65 H65            1.6467    -2.6076     0.3629 H       
  66 H66            0.3614    -2.8936    -0.8348 H       
  67 H67            0.4527     8.3164    -7.8260 H       
  68 H68            1.3562     7.6032    -9.1837 H       
  69 H69           -0.3648     7.2104    -8.9559 H       
  70 H70           -1.9204     0.6119    -8.8688 H       
  71 H71           -2.5602     2.2727    -8.8931 H       
  72 H72           -0.9833     1.9155    -9.6374 H       
@<TRIPOS>BOND
   1    1    2 ar
   2    1    6 ar
   3    1   40 1
   4    2    3 ar
   5    2   41 1
   6    3    4 ar
   7    3   26 1
   8    4    5 ar
   9    4   42 1
  10    5    6 ar
  11    5    7 1
  12    6   10 1
  13    7    8 1
  14    7   14 am
  15    8    9 1
  16    8   12 1
  17    8   13 1
  18    9   10 1
  19    9   11 2
  20   10   27 2
  21   11   43 1
  22   11   44 1
  23   12   45 1
  24   12   46 1
  25   12   47 1
  26   13   48 1
  27   13   49 1
  28   13   50 1
  29   14   15 2
  30   14   16 1
  31   16   17 ar
  32   16   21 ar
  33   17   18 ar
  34   17   51 1
  35   18   19 ar
  36   18   52 1
  37   19   20 ar
  38   19   22 1
  39   20   21 ar
  40   20   53 1
  41   21   54 1
  42   22   23 1
  43   22   24 1
  44   22   25 1
  45   23   55 1
  46   23   56 1
  47   23   57 1
  48   24   58 1
  49   24   59 1
  50   24   60 1
  51   25   61 1
  52   25   62 1
  53   25   63 1
  54   26   64 1
  55   26   65 1
  56   26   66 1
  57   27   28 1
  58   27   31 1
  59   28   29 1
  60   29   30 2
  61   29   32 1
  62   30   31 1
  63   30   36 1
  64   32   33 2
  65   32   34 1
  66   34   35 1
  67   35   67 1
  68   35   68 1
  69   35   69 1
  70   36   37 2
  71   36   38 1
  72   38   39 1
  73   39   70 1
  74   39   71 1
  75   39   72 1

#	End of record

