#	Name: ASD02500746
#	Creating user name:	WinNT
#	Creation time:	15. 06. 2019 20:23

#	Modifying user name:	WinNT
#	Modification time:	15. 06. 2019 20:23

#	Program:	/corina/corina34_cracker 3.40 0067  02.08.2006

@<TRIPOS>MOLECULE
ASD02500746
  49   52    0    0    0
SMALL
NO_CHARGES


@<TRIPOS>ATOM
   1 C1            -0.0168     1.3851     0.0097 C.ar    
   2 C2             0.0021    -0.0041     0.0020 C.ar    
   3 C3             1.2097    -0.6777    -0.0131 C.ar    
   4 C4             2.3987     0.0323    -0.0207 C.ar    
   5 C5             2.3802     1.4163    -0.0131 C.ar    
   6 C6             1.1749     2.0928     0.0021 C.ar    
   7 O7            -1.2032     2.0498     0.0189 O.3     
   8 F8             3.5780    -0.6267    -0.0350 F       
   9 F9            -1.1582    -0.6961     0.0098 F       
  10 S10            1.2357    -2.4395    -0.0223 S.o2    
  11 O11            2.4964    -2.8250     0.5080 O.2     
  12 O12           -0.0027    -2.8619     0.5321 O.2     
  13 N13            1.2275    -2.9217    -1.6065 N.am    
  14 C14            2.4887    -3.1208    -2.3343 C.3     
  15 C15            2.5044    -4.5432    -2.9075 C.3     
  16 N16            1.2358    -4.7802    -3.6107 N.am    
  17 C17           -0.0254    -4.5811    -2.8829 C.3     
  18 C18           -0.0410    -3.1640    -2.3080 C.3     
  19 S19            1.2276    -5.2624    -5.1949 S.o2    
  20 O20           -0.0333    -4.8774    -5.7250 O.2     
  21 O21            2.4657    -4.8395    -5.7495 O.2     
  22 O22            1.3402   -11.1547    -5.2327 O.3     
  23 C23            1.2998    -9.7942    -5.2213 C.ar    
  24 C24            0.0850    -9.1187    -5.2030 C.ar    
  25 O25           -1.0920    -9.8021    -5.1909 O.3     
  26 C26           -1.0395   -11.1802    -5.5760 C.3     
  27 C27            0.1416   -11.8372    -4.8488 C.3     
  28 C28            0.0670    -7.7322    -5.1959 C.ar    
  29 C29            1.2542    -7.0241    -5.2040 C.ar    
  30 C30            2.4621    -7.6958    -5.2198 C.ar    
  31 C31            2.4870    -9.0779    -5.2286 C.ar    
  32 H32            3.3085     1.9682    -0.0186 H       
  33 H33            1.1617     3.1727     0.0076 H       
  34 H34           -1.5422     2.2372     0.9049 H       
  35 H35            2.5600    -2.3980    -3.1470 H       
  36 H36            3.3290    -2.9920    -1.6521 H       
  37 H37            3.3347    -4.6470    -3.6060 H       
  38 H38            2.6131    -5.2633    -2.0965 H       
  39 H39           -0.8657    -4.7098    -3.5651 H       
  40 H40           -0.0967    -5.3038    -2.0701 H       
  41 H41           -0.8708    -3.0638    -1.6085 H       
  42 H42           -0.1538    -2.4444    -3.1189 H       
  43 H43           -1.9677   -11.6766    -5.2929 H       
  44 H44           -0.8957   -11.2554    -6.6539 H       
  45 H45            0.2097   -12.8875    -5.1325 H       
  46 H46            0.0012   -11.7555    -3.7709 H       
  47 H47           -0.8755    -7.2050    -5.1839 H       
  48 H48            3.3880    -7.1399    -5.2255 H       
  49 H49            3.4322    -9.6003    -5.2409 H       
@<TRIPOS>BOND
   1    1    2 ar
   2    1    6 ar
   3    1    7 1
   4    2    3 ar
   5    2    9 1
   6    3    4 ar
   7    3   10 1
   8    4    5 ar
   9    4    8 1
  10    5    6 ar
  11    5   32 1
  12    6   33 1
  13    7   34 1
  14   10   11 2
  15   10   12 2
  16   10   13 am
  17   13   14 1
  18   13   18 1
  19   14   15 1
  20   14   35 1
  21   14   36 1
  22   15   16 1
  23   15   37 1
  24   15   38 1
  25   16   17 1
  26   16   19 am
  27   17   18 1
  28   17   39 1
  29   17   40 1
  30   18   41 1
  31   18   42 1
  32   19   20 2
  33   19   21 2
  34   19   29 1
  35   22   23 1
  36   22   27 1
  37   23   24 ar
  38   23   31 ar
  39   24   25 1
  40   24   28 ar
  41   25   26 1
  42   26   27 1
  43   26   43 1
  44   26   44 1
  45   27   45 1
  46   27   46 1
  47   28   29 ar
  48   28   47 1
  49   29   30 ar
  50   30   31 ar
  51   30   48 1
  52   31   49 1

#	End of record

