#	Name: ASD04122047
#	Creating user name:	WinNT
#	Creation time:	15. 06. 2019 20:48

#	Modifying user name:	WinNT
#	Modification time:	15. 06. 2019 20:48

#	Program:	/corina/corina34_cracker 3.40 0067  02.08.2006

@<TRIPOS>MOLECULE
ASD04122047
  48   52    0    0    0
SMALL
NO_CHARGES


@<TRIPOS>ATOM
   1 C1            -1.8511     4.3045    -1.2049 C.ar    
   2 C2            -0.6792     4.5563    -0.4844 C.ar    
   3 N3            -0.2653     3.7447     0.5824 N.pl3   
   4 C4            -0.4389     2.3973     0.7740 C.2     
   5 C5            -1.2094     1.4759     0.0256 C.2     
   6 C6            -2.0642     1.9264    -1.1023 C.3     
   7 O7            -2.5829     3.2190    -0.9108 O.3     
   8 C8             0.4564     4.2345     1.6341 C.2     
   9 C9             0.8056     3.2117     2.4487 C.2     
  10 C10            0.2605     2.0422     1.9237 C.2     
  11 C11           -2.2298     5.1581    -2.2284 C.ar    
  12 C12           -1.4477     6.2500    -2.5515 C.ar    
  13 C13           -0.2803     6.4943    -1.8515 C.ar    
  14 C14            0.1023     5.6547    -0.8256 C.ar    
  15 C15           -1.2464     1.9136    -2.3680 C.ar    
  16 C16           -1.7352     2.5147    -3.5129 C.ar    
  17 C17           -0.9850     2.5029    -4.6739 C.ar    
  18 C18            0.2541     1.8904    -4.6900 C.ar    
  19 C19            0.7433     1.2901    -3.5449 C.ar    
  20 C20           -0.0050     1.3057    -2.3827 C.ar    
  21 O21           -1.1707     0.2960     0.3104 O.2     
  22 C22            1.0715     1.8767    -5.9560 C.3     
  23 S23            2.1343     3.3459    -6.0055 S.3     
  24 C24            2.9986     3.1587    -7.5295 C.ar    
  25 C25            3.9277     4.1143    -7.9258 C.ar    
  26 C26            4.6037     3.9635    -9.1216 C.ar    
  27 C27            4.3565     2.8642    -9.9234 C.ar    
  28 C28            3.4325     1.9122    -9.5321 C.ar    
  29 C29            2.7576     2.0529    -8.3356 C.ar    
  30 Cl30           4.2376     5.4950    -6.9202 Cl      
  31 H31           -2.8935     1.2278    -1.2132 H       
  32 H32            0.7085     5.2730     1.7904 H       
  33 H33            1.4009     3.2885     3.3465 H       
  34 H34            0.3610     1.0475     2.3322 H       
  35 H35           -3.1408     4.9687    -2.7767 H       
  36 H36           -1.7476     6.9122    -3.3503 H       
  37 H37            0.3340     7.3445    -2.1088 H       
  38 H38            1.0154     5.8521    -0.2837 H       
  39 H39           -2.7033     2.9933    -3.5003 H       
  40 H40           -1.3672     2.9719    -5.5685 H       
  41 H41            1.7113     0.8113    -3.5576 H       
  42 H42            0.3772     0.8367    -1.4880 H       
  43 H43            1.6903     0.9797    -5.9793 H       
  44 H44            0.4053     1.8810    -6.8187 H       
  45 H45            5.3256     4.7050    -9.4304 H       
  46 H46            4.8859     2.7489   -10.8576 H       
  47 H47            3.2417     1.0555   -10.1614 H       
  48 H48            2.0366     1.3088    -8.0309 H       
@<TRIPOS>BOND
   1    1    2 ar
   2    1   11 ar
   3    1    7 1
   4    2    3 1
   5    2   14 ar
   6    3    8 1
   7    3    4 1
   8    4    5 1
   9    4   10 2
  10    5   21 2
  11    5    6 1
  12    6    7 1
  13    6   15 1
  14    6   31 1
  15    8    9 2
  16    8   32 1
  17    9   10 1
  18    9   33 1
  19   10   34 1
  20   11   12 ar
  21   11   35 1
  22   12   13 ar
  23   12   36 1
  24   13   14 ar
  25   13   37 1
  26   14   38 1
  27   15   16 ar
  28   15   20 ar
  29   16   17 ar
  30   16   39 1
  31   17   18 ar
  32   17   40 1
  33   18   19 ar
  34   18   22 1
  35   19   20 ar
  36   19   41 1
  37   20   42 1
  38   22   23 1
  39   22   43 1
  40   22   44 1
  41   23   24 1
  42   24   25 ar
  43   24   29 ar
  44   25   26 ar
  45   25   30 1
  46   26   27 ar
  47   26   45 1
  48   27   28 ar
  49   27   46 1
  50   28   29 ar
  51   28   47 1
  52   29   48 1

#	End of record

