#	Name: ASD04590235
#	Creating user name:	WinNT
#	Creation time:	15. 06. 2019 20:50

#	Modifying user name:	WinNT
#	Modification time:	15. 06. 2019 20:50

#	Program:	/corina/corina34_cracker 3.40 0067  02.08.2006

@<TRIPOS>MOLECULE
ASD04590235
  59   61    0    0    0
SMALL
NO_CHARGES


@<TRIPOS>ATOM
   1 N1            -0.0153     1.2802     0.0091 N.pl3   
   2 N2             0.0021    -0.0041     0.0020 N.2     
   3 C3             1.2455    -0.4440    -0.0122 C.2     
   4 C4             2.0903     0.6961    -0.0142 C.2     
   5 C5             1.2523     1.7667    -0.0004 C.2     
   6 C6             1.6765    -1.8547    -0.0235 C.2     
   7 N7             0.7571    -2.8402    -0.0200 N.am    
   8 N8             3.4929     0.7146    -0.0270 N.am    
   9 O9             2.8611    -2.1284    -0.0359 O.2     
  10 C10            4.1514     1.8906    -0.0271 C.2     
  11 C11            5.6270     1.9101    -0.0406 C.ar    
  12 O12            3.5295     2.9356    -0.0159 O.2     
  13 C13            1.1851    -4.2412    -0.0312 C.3     
  14 C14            1.9146    -6.1628     1.3892 C.3     
  15 C15            1.4676    -4.6996     1.4009 C.3     
  16 C16            6.3115     3.1284    -0.0407 C.ar    
  17 C17            7.6884     3.1423    -0.0534 C.ar    
  18 C18            8.3973     1.9468    -0.0662 C.ar    
  19 C19            7.7202     0.7329    -0.0666 C.ar    
  20 C20            6.3435     0.7104    -0.0477 C.ar    
  21 C21            0.0782    -5.1078    -0.6351 C.3     
  22 C22            0.5251    -6.5710    -0.6468 C.3     
  23 C23            0.8077    -7.0294     0.7853 C.3     
  24 C24            1.2546    -8.4926     0.7737 C.3     
  25 C25            2.5260    -8.6309    -0.0663 C.3     
  26 C26            1.5372    -8.9510     2.2058 C.3     
  27 C27            0.1477    -9.3592     0.1698 C.3     
  28 O28            9.7543     1.9647    -0.0787 O.3     
  29 C29           10.4197     0.7002    -0.0914 C.3     
  30 F30           10.0639    -0.0255     1.0505 F       
  31 F31           10.0427    -0.0137    -1.2340 F       
  32 H32           -0.8184     1.8242     0.0160 H       
  33 H33            1.5405     2.8076     0.0021 H       
  34 H34           -0.1880    -2.6218    -0.0102 H       
  35 H35            3.9890    -0.1189    -0.0359 H       
  36 H36            2.0908    -4.3397    -0.6296 H       
  37 H37            2.8203    -6.2613     0.7908 H       
  38 H38            2.1158    -6.4894     2.4095 H       
  39 H39            2.2562    -4.0823     1.8311 H       
  40 H40            0.5619    -4.6012     1.9993 H       
  41 H41            5.7615     4.0577    -0.0311 H       
  42 H42            8.2182     4.0834    -0.0538 H       
  43 H43            8.2746    -0.1939    -0.0773 H       
  44 H44            5.8180    -0.2332    -0.0477 H       
  45 H45           -0.8276    -5.0094    -0.0367 H       
  46 H46           -0.1231    -4.7812    -1.6554 H       
  47 H47           -0.2635    -7.1884    -1.0770 H       
  48 H48            1.4309    -6.6695    -1.2451 H       
  49 H49           -0.0981    -6.9310     1.3837 H       
  50 H50            3.3146    -8.0135     0.3640 H       
  51 H51            2.8444    -9.6733    -0.0746 H       
  52 H52            2.3247    -8.3043    -1.0865 H       
  53 H53            0.6314    -8.8526     2.8041 H       
  54 H54            1.8556    -9.9935     2.1975 H       
  55 H55            2.3257    -8.3337     2.6360 H       
  56 H56           -0.0536    -9.0327    -0.8505 H       
  57 H57            0.4661   -10.4016     0.1615 H       
  58 H58           -0.7580    -9.2608     0.7682 H       
  59 H59           11.4983     0.8573    -0.1006 H       
@<TRIPOS>BOND
   1    1    2 1
   2    1    5 1
   3    1   32 1
   4    2    3 2
   5    3    4 1
   6    3    6 1
   7    4    5 2
   8    4    8 1
   9    5   33 1
  10    6    7 am
  11    6    9 2
  12    7   13 1
  13    7   34 1
  14    8   10 am
  15    8   35 1
  16   10   12 2
  17   10   11 1
  18   11   16 ar
  19   11   20 ar
  20   13   21 1
  21   13   15 1
  22   13   36 1
  23   14   15 1
  24   14   23 1
  25   14   37 1
  26   14   38 1
  27   15   39 1
  28   15   40 1
  29   16   17 ar
  30   16   41 1
  31   17   18 ar
  32   17   42 1
  33   18   19 ar
  34   18   28 1
  35   19   20 ar
  36   19   43 1
  37   20   44 1
  38   21   22 1
  39   21   45 1
  40   21   46 1
  41   22   23 1
  42   22   47 1
  43   22   48 1
  44   23   24 1
  45   23   49 1
  46   24   25 1
  47   24   26 1
  48   24   27 1
  49   25   50 1
  50   25   51 1
  51   25   52 1
  52   26   53 1
  53   26   54 1
  54   26   55 1
  55   27   56 1
  56   27   57 1
  57   27   58 1
  58   28   29 1
  59   29   30 1
  60   29   31 1
  61   29   59 1

#	End of record

