#	Name: ASD03091852
#	Creating user name:	WinNT
#	Creation time:	15. 06. 2019 20:31

#	Modifying user name:	WinNT
#	Modification time:	15. 06. 2019 20:31

#	Program:	/corina/corina34_cracker 3.40 0067  02.08.2006

@<TRIPOS>MOLECULE
ASD03091852
  53   56    0    0    0
SMALL
NO_CHARGES


@<TRIPOS>ATOM
   1 C1            -0.0170     1.3990     0.0097 C.ar    
   2 C2            -1.2302     2.0682     0.0306 C.ar    
   3 C3            -2.4113     1.3476     0.0434 C.ar    
   4 C4            -2.3921    -0.0379     0.0355 C.ar    
   5 C5            -1.1921    -0.7189     0.0148 C.ar    
   6 C6             0.0021    -0.0041     0.0020 C.ar    
   7 O7             1.1634     2.0662     0.0020 O.3     
   8 C8             2.2625     1.4579     0.6803 C.3     
   9 N9             2.4083     0.0563     0.2863 N.am    
  10 C10            1.3145    -0.6822    -0.0142 C.2     
  11 C11           -3.6890    -0.8053     0.0500 C.3     
  12 C12           -4.2048    -0.9467    -1.3589 C.ar    
  13 C13           -5.0429     0.0119    -1.8969 C.ar    
  14 C14           -3.8402    -2.0368    -2.1338 C.ar    
  15 C15           -4.3391    -2.1254    -3.4246 C.ar    
  16 C16           -5.1770    -1.1312    -3.8924 C.ar    
  17 N17           -5.4985    -0.1052    -3.1287 N.ar    
  18 O18            1.4088    -1.8632    -0.2876 O.2     
  19 C19            3.7407    -0.5489     0.2168 C.3     
  20 C20            4.0046    -1.0390    -1.2083 C.3     
  21 O21            3.9354     0.0656    -2.1123 O.3     
  22 C22           -5.7250    -1.2172    -5.2936 C.3     
  23 F23           -1.2596     3.4188     0.0388 F       
  24 C24           -3.7303     2.0760     0.0668 C.3     
  25 C25            3.8148    -1.7315     1.1848 C.3     
  26 C26            5.2063    -2.3635     1.1122 C.3     
  27 C27            5.4702    -2.8536    -0.3129 C.3     
  28 C28            5.3961    -1.6710    -1.2808 C.3     
  29 H29           -1.1796    -1.7988     0.0090 H       
  30 H30            3.1777     1.9963     0.4343 H       
  31 H31            2.0941     1.5120     1.7559 H       
  32 H32           -3.5212    -1.7943     0.4764 H       
  33 H33           -4.4217    -0.2691     0.6531 H       
  34 H34           -5.3280     0.8666    -1.3013 H       
  35 H35           -3.1830    -2.7988    -1.7415 H       
  36 H36           -4.0757    -2.9607    -4.0565 H       
  37 H37            4.4912     0.1925     0.4909 H       
  38 H38            3.2541    -1.7804    -1.4824 H       
  39 H39            4.0931    -0.1720    -3.0363 H       
  40 H40           -6.6708    -1.7590    -5.2812 H       
  41 H41           -5.8872    -0.2120    -5.6827 H       
  42 H42           -5.0135    -1.7429    -5.9304 H       
  43 H43           -4.0632     2.2577    -0.9551 H       
  44 H44           -4.4712     1.4696     0.5879 H       
  45 H45           -3.6107     3.0277     0.5846 H       
  46 H46            3.6268    -1.3824     2.2001 H       
  47 H47            3.0642    -2.4729     0.9107 H       
  48 H48            5.9568    -1.6221     1.3863 H       
  49 H49            5.2590    -3.2060     1.8018 H       
  50 H50            6.4615    -3.3038    -0.3646 H       
  51 H51            4.7196    -3.5950    -0.5870 H       
  52 H52            5.5841    -2.0201    -2.2961 H       
  53 H53            6.1466    -0.9296    -1.0067 H       
@<TRIPOS>BOND
   1    1    6 ar
   2    1    7 1
   3    1    2 ar
   4    2    3 ar
   5    2   23 1
   6    3    4 ar
   7    3   24 1
   8    4    5 ar
   9    4   11 1
  10    5    6 ar
  11    5   29 1
  12    6   10 1
  13    7    8 1
  14    8    9 1
  15    8   30 1
  16    8   31 1
  17    9   10 am
  18    9   19 1
  19   10   18 2
  20   11   12 1
  21   11   32 1
  22   11   33 1
  23   12   14 ar
  24   12   13 ar
  25   13   17 ar
  26   13   34 1
  27   14   15 ar
  28   14   35 1
  29   15   16 ar
  30   15   36 1
  31   16   22 1
  32   16   17 ar
  33   19   25 1
  34   19   20 1
  35   19   37 1
  36   20   21 1
  37   20   28 1
  38   20   38 1
  39   21   39 1
  40   22   40 1
  41   22   41 1
  42   22   42 1
  43   24   43 1
  44   24   44 1
  45   24   45 1
  46   25   26 1
  47   25   46 1
  48   25   47 1
  49   26   27 1
  50   26   48 1
  51   26   49 1
  52   27   28 1
  53   27   50 1
  54   27   51 1
  55   28   52 1
  56   28   53 1

#	End of record

