#	Name: ASD01420064
#	Creating user name:	WinNT
#	Creation time:	15. 06. 2019 19:20

#	Modifying user name:	WinNT
#	Modification time:	15. 06. 2019 19:20

#	Program:	/corina/corina34_cracker 3.40 0067  02.08.2006

@<TRIPOS>MOLECULE
ASD01420064
 100  103    0    0    0
SMALL
NO_CHARGES


@<TRIPOS>ATOM
   1 C1             0.2211     1.0262     0.8723 C.ar    
   2 C2             1.3033     1.7707     1.3029 C.ar    
   3 C3             1.9147     2.6632     0.4424 C.ar    
   4 C4             1.4441     2.8109    -0.8490 C.ar    
   5 C5             0.3625     2.0658    -1.2799 C.ar    
   6 C6            -0.2498     1.1743    -0.4190 C.ar    
   7 C7            -0.4415     0.0487     1.8084 C.3     
   8 C8            -0.2246     0.5001     3.2542 C.3     
   9 C9            -0.9565    -0.4278     4.1892 C.2     
  10 O10           -1.5722     0.0144     5.1360 O.2     
  11 N11           -0.9180    -1.7760     3.9562 N.am    
  12 N12           -0.7564     1.8583     3.4321 N.am    
  13 C13           -0.8759     2.3575     4.6784 C.2     
  14 C14           -1.7206    -2.5772     4.9177 C.3     
  15 O15           -0.4540     1.7247     5.6230 O.2     
  16 C16           -1.5291     3.6956     4.9071 C.3     
  17 N17           -2.5419     3.5431     5.9753 N.am    
  18 C18           -2.1575    -3.8880     4.2605 C.3     
  19 C19           -2.9345    -1.7686     5.2983 C.2     
  20 O20           -3.2815    -0.8261     4.6184 O.2     
  21 N21           -3.6376    -2.1091     6.4147 N.am    
  22 C22           -0.4747     4.7169     5.3384 C.3     
  23 C23           -1.1195     6.1001     5.4485 C.3     
  24 C24           -0.0975     7.0968     5.9989 C.3     
  25 C25           -1.5842     6.5578     4.0645 C.3     
  26 C26           -3.6199     2.7673     5.6651 C.2     
  27 C27           -4.6820     2.5412     6.7085 C.3     
  28 O28           -3.7218     2.2673     4.5649 O.2     
  29 N29           -5.2286     1.1711     6.5363 N.am    
  30 C30           -4.3490     0.1696     6.8579 C.2     
  31 C31           -4.8080    -1.2593     6.7242 C.3     
  32 C32           -5.8322    -1.3652     5.5925 C.3     
  33 C33           -6.3888    -2.7894     5.5400 C.3     
  34 C34           -7.1713    -3.0787     6.8225 C.3     
  35 C35           -7.3183    -2.9295     4.3328 C.3     
  36 O36           -3.2275     0.4279     7.2406 O.2     
  37 C37           -4.0693     2.6785     8.1037 C.3     
  38 C38           -4.0075     4.1576     8.4903 C.3     
  39 C39           -4.9319     1.9224     9.1162 C.3     
  40 C40           -1.9187    -0.0052     1.5153 C.ar    
  41 C41           -2.6448     1.1660     1.4055 C.ar    
  42 C42           -2.5466    -1.2257     1.3505 C.ar    
  43 C43           -3.9016    -1.2752     1.0816 C.ar    
  44 C44           -4.6289    -0.1042     0.9779 C.ar    
  45 C45           -3.9998     1.1165     1.1366 C.ar    
  46 C46           -0.9444    -4.7346     3.9730 C.2     
  47 N47            0.0596    -4.3129     3.2308 N.2     
  48 C48            1.0445    -5.1278     3.0556 C.2     
  49 S49            0.7483    -6.5963     3.8796 S.3     
  50 C50           -0.7960    -5.9723     4.4545 C.2     
  51 H51            1.6710     1.6552     2.3118 H       
  52 H52            2.7598     3.2453     0.7791 H       
  53 H53            1.9213     3.5087    -1.5211 H       
  54 H54           -0.0056     2.1817    -2.2886 H       
  55 H55           -1.0954     0.5928    -0.7554 H       
  56 H56           -0.0068    -0.9409     1.6677 H       
  57 H57            0.8404     0.4877     3.4856 H       
  58 H58           -0.4130    -2.1728     3.2293 H       
  59 H59           -1.0175     2.3886     2.6631 H       
  60 H60           -1.1259    -2.7908     5.8059 H       
  61 H61           -2.0115     4.0305     3.9888 H       
  62 H62           -2.4450     3.9681     6.8419 H       
  63 H63           -2.8254    -4.4265     4.9328 H       
  64 H64           -2.6783    -3.6709     3.3279 H       
  65 H65           -3.3864    -2.8624     6.9719 H       
  66 H66           -0.0647     4.4291     6.3064 H       
  67 H67            0.3257     4.7470     4.5991 H       
  68 H68           -1.9759     6.0492     6.1208 H       
  69 H69            0.7589     7.1477     5.3265 H       
  70 H70           -0.5569     8.0822     6.0773 H       
  71 H71            0.2335     6.7707     6.9849 H       
  72 H72           -0.7277     6.6087     3.3921 H       
  73 H73           -2.3122     5.8477     3.6724 H       
  74 H74           -2.0435     7.5432     4.1429 H       
  75 H75           -5.4805     3.2724     6.5826 H       
  76 H76           -6.1305     0.9994     6.2234 H       
  77 H77           -5.2600    -1.5869     7.6604 H       
  78 H78           -6.6464    -0.6633     5.7725 H       
  79 H79           -5.3510    -1.1279     4.6437 H       
  80 H80           -5.5656    -3.4981     5.4489 H       
  81 H81           -7.9945    -2.3701     6.9136 H       
  82 H82           -7.5679    -4.0934     6.7851 H       
  83 H83           -6.5091    -2.9789     7.6825 H       
  84 H84           -6.7607    -2.7233     3.4191 H       
  85 H85           -7.7148    -3.9441     4.2954 H       
  86 H86           -8.1414    -2.2208     4.4239 H       
  87 H87           -3.0623     2.2613     8.1010 H       
  88 H88           -3.4473     4.2673     9.4188 H       
  89 H89           -3.5123     4.7197     7.6985 H       
  90 H90           -5.0190     4.5394     8.6289 H       
  91 H91           -4.8809     0.8532     8.9103 H       
  92 H92           -4.5639     2.1163    10.1237 H       
  93 H93           -5.9656     2.2589     9.0359 H       
  94 H94           -2.1535     2.1196     1.5303 H       
  95 H95           -1.9784    -2.1406     1.4314 H       
  96 H96           -4.3920    -2.2287     0.9521 H       
  97 H97           -5.6875    -0.1428     0.7675 H       
  98 H98           -4.5671     2.0315     1.0509 H       
  99 H99            1.9282    -4.9133     2.4729 H       
 100 H100          -1.5004    -6.4990     5.0813 H       
@<TRIPOS>BOND
   1    1    2 ar
   2    1    6 ar
   3    1    7 1
   4    2    3 ar
   5    2   51 1
   6    3    4 ar
   7    3   52 1
   8    4    5 ar
   9    4   53 1
  10    5    6 ar
  11    5   54 1
  12    6   55 1
  13    7   40 1
  14    7    8 1
  15    7   56 1
  16    8    9 1
  17    8   12 1
  18    8   57 1
  19    9   10 2
  20    9   11 am
  21   11   14 1
  22   11   58 1
  23   12   13 am
  24   12   59 1
  25   13   15 2
  26   13   16 1
  27   14   18 1
  28   14   19 1
  29   14   60 1
  30   16   17 1
  31   16   22 1
  32   16   61 1
  33   17   26 am
  34   17   62 1
  35   18   46 1
  36   18   63 1
  37   18   64 1
  38   19   20 2
  39   19   21 am
  40   21   31 1
  41   21   65 1
  42   22   23 1
  43   22   66 1
  44   22   67 1
  45   23   24 1
  46   23   25 1
  47   23   68 1
  48   24   69 1
  49   24   70 1
  50   24   71 1
  51   25   72 1
  52   25   73 1
  53   25   74 1
  54   26   28 2
  55   26   27 1
  56   27   29 1
  57   27   37 1
  58   27   75 1
  59   29   30 am
  60   29   76 1
  61   30   31 1
  62   30   36 2
  63   31   32 1
  64   31   77 1
  65   32   33 1
  66   32   78 1
  67   32   79 1
  68   33   34 1
  69   33   35 1
  70   33   80 1
  71   34   81 1
  72   34   82 1
  73   34   83 1
  74   35   84 1
  75   35   85 1
  76   35   86 1
  77   37   38 1
  78   37   39 1
  79   37   87 1
  80   38   88 1
  81   38   89 1
  82   38   90 1
  83   39   91 1
  84   39   92 1
  85   39   93 1
  86   40   42 ar
  87   40   41 ar
  88   41   45 ar
  89   41   94 1
  90   42   43 ar
  91   42   95 1
  92   43   44 ar
  93   43   96 1
  94   44   45 ar
  95   44   97 1
  96   45   98 1
  97   46   47 1
  98   46   50 2
  99   47   48 2
 100   48   49 1
 101   48   99 1
 102   49   50 1
 103   50  100 1

#	End of record

