#	Name: ASD01913770
#	Creating user name:	WinNT
#	Creation time:	15. 06. 2019 20:02

#	Modifying user name:	WinNT
#	Modification time:	15. 06. 2019 20:02

#	Program:	/corina/corina34_cracker 3.40 0067  02.08.2006

@<TRIPOS>MOLECULE
ASD01913770
  46   48    0    0    0
SMALL
NO_CHARGES


@<TRIPOS>ATOM
   1 O1            -0.0163     1.3508     0.0095 O.3     
   2 C2             0.0021    -0.0041     0.0020 C.ar    
   3 N3             1.1629    -0.6408    -0.0125 N.ar    
   4 C4             1.2330    -1.9556    -0.0202 C.ar    
   5 C5             0.0719    -2.7293    -0.0137 C.ar    
   6 C6            -1.1744    -2.0856     0.0016 C.ar    
   7 C7            -1.1994    -0.7064     0.0154 C.ar    
   8 C8             0.1538    -4.2032    -0.0234 C.2     
   9 N9             1.3565    -4.8112    -0.0386 N.am    
  10 O10           -0.8637    -4.8686    -0.0177 O.2     
  11 C11            1.2480     2.0168     0.0010 C.3     
  12 C12            1.0303     3.5079     0.0111 C.ar    
  13 C13            0.9419     4.1851     1.2128 C.ar    
  14 C14            0.7418     5.5532     1.2236 C.ar    
  15 C15            0.6298     6.2450     0.0328 C.ar    
  16 C16            0.7186     5.5677    -1.1718 C.ar    
  17 C17            0.9247     4.1988    -1.1815 C.ar    
  18 C18            1.4378    -6.2739    -0.0482 C.3     
  19 C19            2.9063    -6.7030    -0.0649 C.3     
  20 F20            0.6093     6.2431    -2.3368 F       
  21 C21            2.9912    -8.2306    -0.0749 C.3     
  22 C22            2.1163    -8.8709    -1.1546 C.3     
  23 C23            4.4321    -8.7738    -0.0389 C.3     
  24 O24            3.9300    -9.7226     0.9236 O.3     
  25 C25            2.8309    -8.8716     1.3165 C.3     
  26 H26            2.1983    -2.4397    -0.0320 H       
  27 H27           -2.0916    -2.6557     0.0069 H       
  28 H28           -2.1409    -0.1774     0.0278 H       
  29 H29            2.1684    -4.2803    -0.0432 H       
  30 H30            1.8174     1.7267     0.8840 H       
  31 H31            1.8004     1.7363    -0.8958 H       
  32 H32            1.0289     3.6451     2.1441 H       
  33 H33            0.6725     6.0812     2.1632 H       
  34 H34            0.4728     7.3135     0.0415 H       
  35 H35            0.9941     3.6695    -2.1203 H       
  36 H36            0.9535    -6.6706     0.8441 H       
  37 H37            0.9364    -6.6598    -0.9358 H       
  38 H38            3.3906    -6.3064    -0.9572 H       
  39 H39            3.4077    -6.3171     0.8227 H       
  40 H40            2.4315    -8.5154    -2.1356 H       
  41 H41            2.2199    -9.9551    -1.1105 H       
  42 H42            1.0744    -8.5983    -0.9868 H       
  43 H43            4.7565    -9.2261    -0.9761 H       
  44 H44            5.1579    -8.0717     0.3713 H       
  45 H45            3.0670    -8.1987     2.1408 H       
  46 H46            1.8891    -9.4030     1.4540 H       
@<TRIPOS>BOND
   1    1    2 1
   2    1   11 1
   3    2    3 ar
   4    2    7 ar
   5    3    4 ar
   6    4    5 ar
   7    4   26 1
   8    5    6 ar
   9    5    8 1
  10    6    7 ar
  11    6   27 1
  12    7   28 1
  13    8    9 am
  14    8   10 2
  15    9   18 1
  16    9   29 1
  17   11   12 1
  18   11   30 1
  19   11   31 1
  20   12   13 ar
  21   12   17 ar
  22   13   14 ar
  23   13   32 1
  24   14   15 ar
  25   14   33 1
  26   15   16 ar
  27   15   34 1
  28   16   17 ar
  29   16   20 1
  30   17   35 1
  31   18   19 1
  32   18   36 1
  33   18   37 1
  34   19   21 1
  35   19   38 1
  36   19   39 1
  37   21   22 1
  38   21   23 1
  39   21   25 1
  40   22   40 1
  41   22   41 1
  42   22   42 1
  43   23   24 1
  44   23   43 1
  45   23   44 1
  46   24   25 1
  47   25   45 1
  48   25   46 1

#	End of record

