#	Name: ASD01209065
#	Creating user name:	WinNT
#	Creation time:	15. 06. 2019 19:10

#	Modifying user name:	WinNT
#	Modification time:	15. 06. 2019 19:10

#	Program:	/corina/corina34_cracker 3.40 0067  02.08.2006

@<TRIPOS>MOLECULE
ASD01209065
  46   47    0    0    0
SMALL
NO_CHARGES


@<TRIPOS>ATOM
   1 C1             0.1166     2.4382    -0.4434 C.ar    
   2 C2             0.4451     1.0937    -0.4575 C.ar    
   3 C3            -0.5435     0.1340    -0.3350 C.ar    
   4 C4            -1.8636     0.5127    -0.1984 C.ar    
   5 C5            -2.2005     1.8647    -0.1835 C.ar    
   6 C6            -1.2013     2.8279    -0.3014 C.ar    
   7 S7             2.1282     0.6029    -0.6328 S.o2    
   8 O8             2.8171     1.3534     0.3580 O.2     
   9 O9             2.0867    -0.8165    -0.5795 O.2     
  10 C10           -3.6189     2.2772    -0.0368 C.2     
  11 C11           -4.5689     2.0448    -1.1336 C.2     
  12 C12           -4.1017     1.3936    -2.4098 C.3     
  13 O13           -5.7290     2.3770    -1.0117 O.2     
  14 C14           -4.3964    -0.1068    -2.3543 C.3     
  15 C15           -4.8383     2.0144    -3.5984 C.3     
  16 C16           -4.0348     2.8640     1.1006 C.2     
  17 C17           -3.0605     3.1023     2.2253 C.3     
  18 C18           -2.9703     4.6070     2.5345 C.3     
  19 C19           -3.4204     4.7836     3.9995 C.3     
  20 C20           -3.1667     3.3984     4.6444 C.3     
  21 C21           -3.5623     2.4171     3.5132 C.3     
  22 Cl22           1.3631     3.6367    -0.5972 Cl      
  23 C23            2.5928     1.1642    -2.2940 C.3     
  24 H24           -0.2819    -0.9138    -0.3466 H       
  25 H25           -2.6344    -0.2378    -0.1035 H       
  26 H26           -1.4571     3.8771    -0.2905 H       
  27 H27           -3.0291     1.5491    -2.5255 H       
  28 H28           -3.9721    -0.5931    -3.2327 H       
  29 H29           -3.9524    -0.5312    -1.4539 H       
  30 H30           -5.4748    -0.2648    -2.3369 H       
  31 H31           -4.6283     3.0833    -3.6379 H       
  32 H32           -4.5004     1.5434    -4.5215 H       
  33 H33           -5.9109     1.8589    -3.4827 H       
  34 H34           -5.0667     3.1640     1.2073 H       
  35 H35           -2.0773     2.7170     1.9553 H       
  36 H36           -1.9432     4.9517     2.4154 H       
  37 H37           -3.6312     5.1648     1.8711 H       
  38 H38           -2.8218     5.5494     4.4928 H       
  39 H39           -4.4794     5.0375     4.0452 H       
  40 H40           -2.1154     3.2813     4.9072 H       
  41 H41           -3.8026     3.2569     5.5184 H       
  42 H42           -4.6442     2.2889     3.4804 H       
  43 H43           -3.0673     1.4559     3.6516 H       
  44 H44            2.4756     2.2460    -2.3579 H       
  45 H45            3.6318     0.8991    -2.4897 H       
  46 H46            1.9502     0.6849    -3.0324 H       
@<TRIPOS>BOND
   1    1    2 ar
   2    1   22 1
   3    1    6 ar
   4    2    3 ar
   5    2    7 1
   6    3    4 ar
   7    3   24 1
   8    4    5 ar
   9    4   25 1
  10    5    6 ar
  11    5   10 1
  12    6   26 1
  13    7    8 2
  14    7    9 2
  15    7   23 1
  16   10   11 1
  17   10   16 2
  18   11   12 1
  19   11   13 2
  20   12   14 1
  21   12   15 1
  22   12   27 1
  23   14   28 1
  24   14   29 1
  25   14   30 1
  26   15   31 1
  27   15   32 1
  28   15   33 1
  29   16   17 1
  30   16   34 1
  31   17   18 1
  32   17   21 1
  33   17   35 1
  34   18   19 1
  35   18   36 1
  36   18   37 1
  37   19   20 1
  38   19   38 1
  39   19   39 1
  40   20   21 1
  41   20   40 1
  42   20   41 1
  43   21   42 1
  44   21   43 1
  45   23   44 1
  46   23   45 1
  47   23   46 1

#	End of record

