#	Name: ASD05720045
#	Creating user name:	WinNT
#	Creation time:	15. 06. 2019 21:01

#	Modifying user name:	WinNT
#	Modification time:	15. 06. 2019 21:01

#	Program:	/corina/corina34_cracker 3.40 0067  02.08.2006

@<TRIPOS>MOLECULE
ASD05720045
  75   79    0    0    0
SMALL
NO_CHARGES


@<TRIPOS>ATOM
   1 C1            -0.3398     0.8715     1.1676 C.2     
   2 N2            -0.5157    -0.4330     0.9196 N.am    
   3 C3             0.6844    -0.9649     0.2568 C.3     
   4 C4             1.6184     0.2560     0.1490 C.3     
   5 N5             0.8455     1.3462     0.7626 N.am    
   6 O6            -1.1817     1.5632     1.7068 O.2     
   7 C7             1.2996     2.7314     0.9079 C.3     
   8 N8             2.2509     4.3444     2.5026 N.3     
   9 C9             1.9131     2.9241     2.2962 C.3     
  10 C10            3.2263     2.1212     2.4059 C.3     
  11 C11            4.1437     3.0625     3.2301 C.3     
  12 C12            3.7105     4.4558     2.7099 C.3     
  13 C13            1.8176     5.1600     1.3603 C.3     
  14 C14            0.3271     5.4774     1.4964 C.3     
  15 C15            2.6164     6.4646     1.3328 C.3     
  16 C16            0.3372    -1.4999    -1.1340 C.3     
  17 C17           -0.5697    -2.7245    -0.9976 C.3     
  18 C18           -0.3883    -0.4143    -1.9315 C.3     
  19 C19           -2.7378    -3.1985     1.3862 C.2     
  20 N20           -1.6534    -2.4774     1.0850 N.2     
  21 C21           -1.6509    -1.1666     1.2379 C.2     
  22 C22           -2.8000    -0.5107     1.7246 C.2     
  23 C23           -3.8987    -1.2373     2.0307 C.2     
  24 N24           -3.8712    -2.5937     1.8613 N.pl3   
  25 N25           -4.8292    -3.5891     2.0846 N.2     
  26 C26           -4.3236    -4.7554     1.7664 C.2     
  27 C27           -3.0109    -4.5711     1.3153 C.2     
  28 C28           -2.0846    -5.6284     0.8517 C.ar    
  29 C29           -1.8832    -6.7699     1.6293 C.ar    
  30 C30           -1.0198    -7.7545     1.1965 C.ar    
  31 C31           -0.3479    -7.6082    -0.0197 C.ar    
  32 C32           -0.5502    -6.4672    -0.7952 C.ar    
  33 C33           -1.4167    -5.4865    -0.3660 C.ar    
  34 N34            2.0125    -9.8340    -1.6481 N.pl3   
  35 N35            1.2683    -8.6437    -1.6069 N.2     
  36 C36            0.5809    -8.6661    -0.4855 C.2     
  37 N37            0.8599    -9.8033     0.1664 N.2     
  38 C38            1.7169   -10.5092    -0.5230 C.2     
  39 F39           -0.8236    -8.8597     1.9483 F       
  40 H40            1.1430    -1.7451     0.8643 H       
  41 H41            2.5409     0.0821     0.7031 H       
  42 H42            1.8349     0.4812    -0.8952 H       
  43 H43            2.0482     2.9501     0.1464 H       
  44 H44            0.4519     3.4061     0.7884 H       
  45 H45            1.2118     2.5945     3.0629 H       
  46 H46            3.0613     1.1830     2.9357 H       
  47 H47            3.6497     1.9381     1.4183 H       
  48 H48            3.9450     2.9651     4.2974 H       
  49 H49            5.1946     2.8735     3.0112 H       
  50 H50            4.2112     4.6819     1.7685 H       
  51 H51            3.9309     5.2233     3.4518 H       
  52 H52            1.9888     4.6096     0.4351 H       
  53 H53            0.1558     6.0278     2.4215 H       
  54 H54            0.0056     6.0826     0.6488 H       
  55 H55           -0.2421     4.5480     1.5160 H       
  56 H56            2.4148     7.0333     2.2406 H       
  57 H57            3.6810     6.2376     1.2752 H       
  58 H58            2.3227     7.0523     0.4631 H       
  59 H59            1.2528    -1.7819    -1.6538 H       
  60 H60           -1.5885    -2.4004    -0.7854 H       
  61 H61           -0.5555    -3.2926    -1.9277 H       
  62 H62           -0.2112    -3.3531    -0.1824 H       
  63 H63            0.2578     0.4582    -2.0286 H       
  64 H64           -0.6357    -0.7954    -2.9223 H       
  65 H65           -1.3039    -0.1322    -1.4116 H       
  66 H66           -2.8026     0.5618     1.8522 H       
  67 H67           -4.7878    -0.7516     2.4051 H       
  68 H68           -4.8365    -5.7031     1.8373 H       
  69 H69           -2.4028    -6.8819     2.5694 H       
  70 H70           -0.0304    -6.3543    -1.7351 H       
  71 H71           -1.5761    -4.6052    -0.9695 H       
  72 H72            2.6177   -10.1158    -2.3518 H       
  73 H73            2.1186   -11.4704    -0.2382 H       
  74 Cl74          10.1946    12.0523     9.2974 Cl      
  75 H75           10.1946    13.4223     9.2974 H       
@<TRIPOS>BOND
   1    1    2 am
   2    1    5 am
   3    1    6 2
   4    2    3 1
   5    2   21 1
   6    3    4 1
   7    3   16 1
   8    3   40 1
   9    4    5 1
  10    4   41 1
  11    4   42 1
  12    5    7 1
  13    7    9 1
  14    7   43 1
  15    7   44 1
  16    8    9 1
  17    8   12 1
  18    8   13 1
  19    9   10 1
  20    9   45 1
  21   10   11 1
  22   10   46 1
  23   10   47 1
  24   11   12 1
  25   11   48 1
  26   11   49 1
  27   12   50 1
  28   12   51 1
  29   13   14 1
  30   13   15 1
  31   13   52 1
  32   14   53 1
  33   14   54 1
  34   14   55 1
  35   15   56 1
  36   15   57 1
  37   15   58 1
  38   16   17 1
  39   16   18 1
  40   16   59 1
  41   17   60 1
  42   17   61 1
  43   17   62 1
  44   18   63 1
  45   18   64 1
  46   18   65 1
  47   19   20 1
  48   19   24 1
  49   19   27 2
  50   20   21 2
  51   21   22 1
  52   22   23 2
  53   22   66 1
  54   23   24 1
  55   23   67 1
  56   24   25 1
  57   25   26 2
  58   26   27 1
  59   26   68 1
  60   27   28 1
  61   28   29 ar
  62   28   33 ar
  63   29   30 ar
  64   29   69 1
  65   30   31 ar
  66   30   39 1
  67   31   32 ar
  68   31   36 1
  69   32   33 ar
  70   32   70 1
  71   33   71 1
  72   34   35 1
  73   34   38 1
  74   34   72 1
  75   35   36 2
  76   36   37 1
  77   37   38 2
  78   38   73 1
  79   74   75 1

#	End of record

