#	Name: ASD00170230
#	Creating user name:	WinNT
#	Creation time:	15. 06. 2019 18:31

#	Modifying user name:	WinNT
#	Modification time:	15. 06. 2019 18:31

#	Program:	/corina/corina34_cracker 3.40 0067  02.08.2006

@<TRIPOS>MOLECULE
ASD00170230
  43   45    0    0    0
SMALL
NO_CHARGES


@<TRIPOS>ATOM
   1 C1            -0.0160     1.3304     0.0094 C.2     
   2 C2             0.0021    -0.0041     0.0020 C.2     
   3 C3            -1.3370    -0.5763     0.0230 C.2     
   4 C4            -2.3289     0.3653     0.0386 C.2     
   5 S5            -1.6681     1.9332     0.0360 S.3     
   6 N6            -3.6808     0.0823     0.0574 N.pl3   
   7 C7            -1.5955    -2.0157     0.0262 C.2     
   8 O8            -1.7333    -2.6789    -1.1406 O.3     
   9 O9            -1.6863    -2.6151     1.0810 O.2     
  10 C10           -1.9844    -4.0835    -1.0627 C.3     
  11 C11           -2.1084    -4.6495    -2.4538 C.ar    
  12 C12           -0.9874    -5.1207    -3.1106 C.ar    
  13 C13           -1.1011    -5.6400    -4.3869 C.ar    
  14 C14           -2.3360    -5.6883    -5.0058 C.ar    
  15 C15           -3.4576    -5.2178    -4.3484 C.ar    
  16 C16           -3.3445    -4.7027    -3.0709 C.ar    
  17 C17            1.2106     2.2190     0.0024 C.3     
  18 C18            2.1912     1.7488    -1.0706 C.3     
  19 C19            3.1478     0.7261    -0.4639 C.3     
  20 C20            2.4230    -0.0926     0.6021 C.3     
  21 C21            1.2628    -0.8507    -0.0355 C.3     
  22 C22           -4.8040    -5.2700    -5.0234 C.3     
  23 F23           -4.6654    -5.8309    -6.2976 F       
  24 F24           -5.6775    -6.0534    -4.2616 F       
  25 F25           -5.3189    -3.9743    -5.1378 F       
  26 H26           -3.9834    -0.8393     0.0603 H       
  27 H27           -4.3275     0.8051     0.0678 H       
  28 H28           -1.1595    -4.5718    -0.5439 H       
  29 H29           -2.9112    -4.2571    -0.5158 H       
  30 H30           -0.0224    -5.0829    -2.6270 H       
  31 H31           -0.2250    -6.0075    -4.9005 H       
  32 H32           -2.4247    -6.0932    -6.0031 H       
  33 H33           -4.2207    -4.3352    -2.5573 H       
  34 H34            0.9117     3.2463    -0.2059 H       
  35 H35            1.6942     2.1756     0.9783 H       
  36 H36            1.6401     1.2898    -1.8914 H       
  37 H37            2.7586     2.6013    -1.4440 H       
  38 H38            3.5108     0.0605    -1.2471 H       
  39 H39            3.9925     1.2446    -0.0104 H       
  40 H40            3.1184    -0.8027     1.0495 H       
  41 H41            2.0398     0.5749     1.3740 H       
  42 H42            1.0922    -1.7775     0.5121 H       
  43 H43            1.5099    -1.0852    -1.0709 H       
@<TRIPOS>BOND
   1    1    2 2
   2    1   17 1
   3    1    5 1
   4    2    3 1
   5    2   21 1
   6    3    4 2
   7    3    7 1
   8    4    5 1
   9    4    6 1
  10    6   26 1
  11    6   27 1
  12    7    8 1
  13    7    9 2
  14    8   10 1
  15   10   11 1
  16   10   28 1
  17   10   29 1
  18   11   12 ar
  19   11   16 ar
  20   12   13 ar
  21   12   30 1
  22   13   14 ar
  23   13   31 1
  24   14   15 ar
  25   14   32 1
  26   15   16 ar
  27   15   22 1
  28   16   33 1
  29   17   18 1
  30   17   34 1
  31   17   35 1
  32   18   19 1
  33   18   36 1
  34   18   37 1
  35   19   20 1
  36   19   38 1
  37   19   39 1
  38   20   21 1
  39   20   40 1
  40   20   41 1
  41   21   42 1
  42   21   43 1
  43   22   23 1
  44   22   24 1
  45   22   25 1

#	End of record

