#	Name: ASD00069359
#	Creating user name:	WinNT
#	Creation time:	15. 06. 2019 18:29

#	Modifying user name:	WinNT
#	Modification time:	15. 06. 2019 18:29

#	Program:	/corina/corina34_cracker 3.40 0067  02.08.2006

@<TRIPOS>MOLECULE
ASD00069359
  90   95    0    0    0
SMALL
NO_CHARGES


@<TRIPOS>ATOM
   1 C1            -0.0172     1.3710     0.0406 C.2     
   2 C2             0.0027    -0.0063     0.0558 C.2     
   3 N3             1.2694     1.7816     0.0045 N.pl3   
   4 C4             2.0564     0.6634    -0.0020 C.2     
   5 N5             1.2834    -0.3983     0.0290 N.2     
   6 C6            -1.1822    -0.8963     0.0954 C.ar    
   7 N7            -2.4127    -0.3832     0.1201 N.ar    
   8 C8            -1.0259    -2.2810     0.1016 C.ar    
   9 C9            -2.1694    -3.0764     0.1393 C.ar    
  10 N10           -3.3641    -2.4918     0.1680 N.ar    
  11 C11           -3.4752    -1.1719     0.1555 C.ar    
  12 C12            3.5305     0.6512    -0.0389 C.2     
  13 N13            4.1949    -0.5215    -0.0416 N.am    
  14 O14            4.1468     1.6993    -0.0668 O.2     
  15 C15            5.5901    -0.5355    -0.1617 C.ar    
  16 C16            6.2348    -1.6522    -0.6921 C.ar    
  17 C17            6.3339     0.5639     0.2416 C.ar    
  18 C18            7.7110     0.5490     0.1223 C.ar    
  19 C19            8.3524    -0.5596    -0.3987 C.ar    
  20 C20            7.6184    -1.6593    -0.8088 C.ar    
  21 N21            5.4891    -2.7635    -1.1057 N.3     
  22 C22            5.6974    -3.0353    -2.5354 C.3     
  23 C23            4.8206    -4.2172    -2.9577 C.3     
  24 O24            5.1299    -5.3495    -2.1407 O.3     
  25 C25            4.9376    -5.1201    -0.7422 C.3     
  26 C26            5.8155    -3.9473    -0.2974 C.3     
  27 F27            8.2483    -2.7408    -1.3174 F       
  28 N28           -2.0636    -4.4583     0.1464 N.3     
  29 C29           -1.2284    -4.9164     1.2640 C.3     
  30 C30           -1.5507    -4.9534    -1.1375 C.3     
  31 C31           -1.5844    -6.4833    -1.1459 C.3     
  32 C32           -0.7271    -7.0142     0.0064 C.3     
  33 C33           -1.2525    -6.4453     1.3273 C.3     
  34 C34           -0.3781    -6.9157     2.4610 C.2     
  35 N35           -0.2433    -8.2342     2.7056 N.am    
  36 C36            0.6067    -8.6916     3.8077 C.3     
  37 O37            0.2042    -6.1079     3.1532 O.2     
  38 C38            0.1375   -10.0708     4.2751 C.3     
  39 C39            2.0573    -8.7813     3.3296 C.3     
  40 C40            2.9450    -9.2590     4.4805 C.3     
  41 C41            2.4758   -10.6382     4.9480 C.3     
  42 C42            1.0252   -10.5484     5.4261 C.3     
  43 C43            5.3155    -1.7987    -3.3514 C.3     
  44 N44           -4.7360    -0.6020     0.1869 N.pl3   
  45 C45           -4.8816     0.8557     0.1737 C.3     
  46 C46           -2.4224    -4.4180    -2.2752 C.3     
  47 H47           -0.8937     2.0019     0.0508 H       
  48 H48            1.5783     2.7009    -0.0139 H       
  49 H49           -0.0426    -2.7269     0.0773 H       
  50 H50            3.7066    -1.3557     0.0395 H       
  51 H51            5.8368     1.4319     0.6488 H       
  52 H52            8.2878     1.4063     0.4366 H       
  53 H53            9.4285    -0.5659    -0.4898 H       
  54 H54            6.7453    -3.2785    -2.7108 H       
  55 H55            3.7703    -3.9541    -2.8327 H       
  56 H56            5.0141    -4.4587    -4.0028 H       
  57 H57            3.8906    -4.8833    -0.5528 H       
  58 H58            5.2157    -6.0147    -0.1850 H       
  59 H59            6.8653    -4.2052    -0.4370 H       
  60 H60            5.6297    -3.7321     0.7548 H       
  61 H61           -0.2039    -4.5751     1.1155 H       
  62 H62           -1.6153    -4.5081     2.1977 H       
  63 H63           -0.5247    -4.6119    -1.2747 H       
  64 H64           -2.6120    -6.8254    -1.0225 H       
  65 H65           -1.1891    -6.8508    -2.0929 H       
  66 H66           -0.7830    -8.1025     0.0307 H       
  67 H67            0.3082    -6.7049    -0.1373 H       
  68 H68           -2.2748    -6.7867     1.4896 H       
  69 H69           -0.7091    -8.8803     2.1520 H       
  70 H70            0.5399    -7.9853     4.6352 H       
  71 H71           -0.8960   -10.0068     4.6158 H       
  72 H72            0.2042   -10.7770     3.4476 H       
  73 H73            2.1240    -9.4876     2.5020 H       
  74 H74            2.3915    -7.7988     2.9966 H       
  75 H75            3.9784    -9.3229     4.1399 H       
  76 H76            2.8782    -8.5527     5.3081 H       
  77 H77            2.5425   -11.3445     4.1204 H       
  78 H78            3.1082   -10.9785     5.7680 H       
  79 H79            0.9584    -9.8422     6.2537 H       
  80 H80            0.6909   -11.5310     5.7591 H       
  81 H81            5.9374    -0.9566    -3.0476 H       
  82 H82            5.4702    -2.0008    -4.4113 H       
  83 H83            4.2670    -1.5576    -3.1767 H       
  84 H84           -5.5234    -1.1677     0.2175 H       
  85 H85           -4.3796     1.2788     1.0439 H       
  86 H86           -4.4336     1.2574    -0.7351 H       
  87 H87           -5.9398     1.1155     0.2027 H       
  88 H88           -2.3978    -3.3283    -2.2699 H       
  89 H89           -2.0419    -4.7854    -3.2282 H       
  90 H90           -3.4486    -4.7589    -2.1380 H       
@<TRIPOS>BOND
   1    1    2 2
   2    1    3 1
   3    1   47 1
   4    2    6 1
   5    2    5 1
   6    3    4 1
   7    3   48 1
   8    4    5 2
   9    4   12 1
  10    6    7 ar
  11    6    8 ar
  12    7   11 ar
  13    8    9 ar
  14    8   49 1
  15    9   10 ar
  16    9   28 1
  17   10   11 ar
  18   11   44 1
  19   12   13 am
  20   12   14 2
  21   13   15 1
  22   13   50 1
  23   15   16 ar
  24   15   17 ar
  25   16   21 1
  26   16   20 ar
  27   17   18 ar
  28   17   51 1
  29   18   19 ar
  30   18   52 1
  31   19   20 ar
  32   19   53 1
  33   20   27 1
  34   21   22 1
  35   21   26 1
  36   22   23 1
  37   22   43 1
  38   22   54 1
  39   23   24 1
  40   23   55 1
  41   23   56 1
  42   24   25 1
  43   25   26 1
  44   25   57 1
  45   25   58 1
  46   26   59 1
  47   26   60 1
  48   28   29 1
  49   28   30 1
  50   29   33 1
  51   29   61 1
  52   29   62 1
  53   30   31 1
  54   30   46 1
  55   30   63 1
  56   31   32 1
  57   31   64 1
  58   31   65 1
  59   32   33 1
  60   32   66 1
  61   32   67 1
  62   33   34 1
  63   33   68 1
  64   34   35 am
  65   34   37 2
  66   35   36 1
  67   35   69 1
  68   36   38 1
  69   36   39 1
  70   36   70 1
  71   38   42 1
  72   38   71 1
  73   38   72 1
  74   39   40 1
  75   39   73 1
  76   39   74 1
  77   40   41 1
  78   40   75 1
  79   40   76 1
  80   41   42 1
  81   41   77 1
  82   41   78 1
  83   42   79 1
  84   42   80 1
  85   43   81 1
  86   43   82 1
  87   43   83 1
  88   44   45 1
  89   44   84 1
  90   45   85 1
  91   45   86 1
  92   45   87 1
  93   46   88 1
  94   46   89 1
  95   46   90 1

#	End of record

