#	Name: ASD01200062
#	Creating user name:	WinNT
#	Creation time:	15. 06. 2019 19:08

#	Modifying user name:	WinNT
#	Modification time:	15. 06. 2019 19:08

#	Program:	/corina/corina34_cracker 3.40 0067  02.08.2006

@<TRIPOS>MOLECULE
ASD01200062
  38   40    0    0    0
SMALL
NO_CHARGES


@<TRIPOS>ATOM
   1 C1             0.0537     1.2516    -0.1769 C.ar    
   2 C2            -0.1446    -0.0811     0.1717 C.ar    
   3 C3            -1.4080    -0.6330     0.1257 C.ar    
   4 C4            -2.4928     0.1392    -0.2690 C.ar    
   5 C5            -2.3003     1.4841    -0.6215 C.ar    
   6 C6            -1.0181     2.0361    -0.5670 C.ar    
   7 C7            -3.4457     2.3111    -1.0416 C.2     
   8 N8            -3.2847     3.6344    -1.2400 N.am    
   9 C9            -4.3641     4.4138    -1.6359 C.2     
  10 O10           -4.5361     1.7994    -1.2091 O.2     
  11 S11            1.6726     1.9443    -0.1145 S.3     
  12 N12           -3.7664    -0.4188    -0.3153 N.pl3   
  13 N13           -4.3177     5.6910    -1.8533 N.2     
  14 C14           -5.4415     6.2748    -2.2256 C.2     
  15 C15           -6.4870     5.4519    -2.3275 C.2     
  16 S16           -5.9456     3.8271    -1.9145 S.3     
  17 C17            2.2655     1.4806    -1.7076 C.2     
  18 N18            3.5161     1.7083    -2.2066 N.pl3   
  19 C19            3.5148     1.1765    -3.4661 C.2     
  20 N20            2.3306     0.6739    -3.6739 N.2     
  21 N21            1.5902     0.8458    -2.6374 N.2     
  22 C22            4.6281     2.3828    -1.5323 C.3     
  23 C23           -5.5362     7.7513    -2.5122 C.3     
  24 O24           -6.8752     8.0784    -2.8892 O.3     
  25 H25            0.6952    -0.6865     0.4794 H       
  26 H26           -1.5538    -1.6682     0.3970 H       
  27 H27           -0.8621     3.0702    -0.8367 H       
  28 H28           -2.4149     4.0426    -1.1063 H       
  29 H29           -3.8723    -1.3791    -0.4020 H       
  30 H30           -4.5484     0.1525    -0.2610 H       
  31 H31           -7.4891     5.7323    -2.6164 H       
  32 H32            4.3421     1.1735    -4.1604 H       
  33 H33            5.2197     1.6492    -0.9847 H       
  34 H34            5.2568     2.8763    -2.2735 H       
  35 H35            4.2353     3.1247    -0.8372 H       
  36 H36           -5.2626     8.3131    -1.6191 H       
  37 H37           -4.8569     8.0078    -3.3251 H       
  38 H38           -7.0099     9.0149    -3.0888 H       
@<TRIPOS>BOND
   1    1    2 ar
   2    1   11 1
   3    1    6 ar
   4    2    3 ar
   5    2   25 1
   6    3    4 ar
   7    3   26 1
   8    4    5 ar
   9    4   12 1
  10    5    6 ar
  11    5    7 1
  12    6   27 1
  13    7    8 am
  14    7   10 2
  15    8    9 1
  16    8   28 1
  17    9   13 2
  18    9   16 1
  19   11   17 1
  20   12   29 1
  21   12   30 1
  22   13   14 1
  23   14   15 2
  24   14   23 1
  25   15   16 1
  26   15   31 1
  27   17   18 1
  28   17   21 2
  29   18   19 1
  30   18   22 1
  31   19   20 2
  32   19   32 1
  33   20   21 1
  34   22   33 1
  35   22   34 1
  36   22   35 1
  37   23   24 1
  38   23   36 1
  39   23   37 1
  40   24   38 1

#	End of record

