#	Name: ASD01028247
#	Creating user name:	WinNT
#	Creation time:	15. 06. 2019 18:56

#	Modifying user name:	WinNT
#	Modification time:	15. 06. 2019 18:56

#	Program:	/corina/corina34_cracker 3.40 0067  02.08.2006

@<TRIPOS>MOLECULE
ASD01028247
  45   49    0    0    0
SMALL
NO_CHARGES


@<TRIPOS>ATOM
   1 C1            -0.0165     1.3658     0.0096 C.ar    
   2 C2             0.0021    -0.0041     0.0020 C.ar    
   3 C3             1.1871     2.0786     0.0019 C.ar    
   4 N4             2.3453     1.4655    -0.0129 N.ar    
   5 C5             2.4265     0.1343    -0.0208 C.ar    
   6 C6             1.2509    -0.6527    -0.0134 C.ar    
   7 C7             3.6823    -0.5215    -0.0362 C.ar    
   8 C8             3.6925    -1.9066    -0.0433 C.ar    
   9 C9             2.4925    -2.6050    -0.0352 C.ar    
  10 N10            1.3341    -1.9873    -0.0204 N.ar    
  11 N11            4.8661     0.2018    -0.0444 N.pl3   
  12 C12            6.1526    -0.4989    -0.0603 C.3     
  13 C13            7.2733     0.5086    -0.0666 C.2     
  14 N14            7.8808     1.0399     1.0238 N.pl3   
  15 C15            8.8369     1.9058     0.5436 C.2     
  16 N16            8.7623     1.8566    -0.7768 N.2     
  17 N17            7.8426     1.0269    -1.1252 N.2     
  18 N18            7.7206     0.8777     2.4030 N.2     
  19 C19            8.4956     1.5638     3.2194 C.2     
  20 C20            9.4666     2.4437     2.6905 C.2     
  21 N21            9.6089     2.5876     1.3971 N.2     
  22 C22            8.3485     1.4130     4.6879 C.ar    
  23 O23           -1.2013     2.0306     0.0188 O.3     
  24 C24           -1.1440     3.4584     0.0263 C.3     
  25 C25            9.1679     2.1382     5.5510 C.ar    
  26 C26            9.0267     1.9940     6.9162 C.ar    
  27 C27            8.0745     1.1311     7.4284 C.ar    
  28 C28            7.2586     0.4087     6.5764 C.ar    
  29 C29            7.3867     0.5498     5.2095 C.ar    
  30 H30           -0.9171    -0.5710     0.0081 H       
  31 H31            1.1613     3.1582     0.0079 H       
  32 H32            4.6307    -2.4414    -0.0554 H       
  33 H33            2.5125    -3.6848    -0.0412 H       
  34 H34            4.8421     1.1715    -0.0396 H       
  35 H35            6.2346    -1.1281     0.8259 H       
  36 H36            6.2171    -1.1197    -0.9539 H       
  37 H37           10.0997     3.0046     3.3621 H       
  38 H38           -2.1563     3.8626     0.0332 H       
  39 H39           -0.6118     3.7960     0.9156 H       
  40 H40           -0.6203     3.8057    -0.8643 H       
  41 H41            9.9121     2.8116     5.1522 H       
  42 H42            9.6611     2.5555     7.5860 H       
  43 H43            7.9680     1.0208     8.4974 H       
  44 H44            6.5171    -0.2638     6.9817 H       
  45 H45            6.7489    -0.0145     4.5452 H       
@<TRIPOS>BOND
   1    1    2 ar
   2    1    3 ar
   3    1   23 1
   4    2    6 ar
   5    2   30 1
   6    3    4 ar
   7    3   31 1
   8    4    5 ar
   9    5    6 ar
  10    5    7 ar
  11    6   10 ar
  12    7    8 ar
  13    7   11 1
  14    8    9 ar
  15    8   32 1
  16    9   10 ar
  17    9   33 1
  18   11   12 1
  19   11   34 1
  20   12   13 1
  21   12   35 1
  22   12   36 1
  23   13   14 1
  24   13   17 2
  25   14   15 1
  26   14   18 1
  27   15   16 2
  28   15   21 1
  29   16   17 1
  30   18   19 2
  31   19   20 1
  32   19   22 1
  33   20   21 2
  34   20   37 1
  35   22   25 ar
  36   22   29 ar
  37   23   24 1
  38   24   38 1
  39   24   39 1
  40   24   40 1
  41   25   26 ar
  42   25   41 1
  43   26   27 ar
  44   26   42 1
  45   27   28 ar
  46   27   43 1
  47   28   29 ar
  48   28   44 1
  49   29   45 1

#	End of record

