#	Name: ASD03092738
#	Creating user name:	WinNT
#	Creation time:	15. 06. 2019 20:33

#	Modifying user name:	WinNT
#	Modification time:	15. 06. 2019 20:33

#	Program:	/corina/corina34_cracker 3.40 0067  02.08.2006

@<TRIPOS>MOLECULE
ASD03092738
  51   53    0    0    0
SMALL
NO_CHARGES


@<TRIPOS>ATOM
   1 C1            -0.0159     1.2127    -0.0215 C.2     
   2 O2            -0.6727     1.1798    -1.0444 O.2     
   3 C3             2.4781     1.0131    -0.0023 C.ar    
   4 C4             1.3259     1.8211    -0.0269 C.ar    
   5 C5             1.4763     3.2112    -0.0571 C.ar    
   6 C6             2.7685     3.7354    -0.0614 C.ar    
   7 C7             3.8579     2.8646    -0.0357 C.ar    
   8 N8             3.6844     1.5592    -0.0076 N.ar    
   9 N9             2.3492    -0.3622     0.0334 N.pl3   
  10 C10            3.5383    -1.2122    -0.0667 C.3     
  11 C11            3.1210    -2.6827    -0.0016 C.3     
  12 C12            4.3628    -3.5704    -0.1061 C.3     
  13 C13            2.9822     5.2033    -0.0934 C.ar    
  14 C14            4.2764     5.7206    -0.0975 C.ar    
  15 C15            4.4719     7.0855    -0.1272 C.ar    
  16 C16            3.3813     7.9440    -0.1525 C.ar    
  17 C17            2.0910     7.4317    -0.1485 C.ar    
  18 C18            1.8892     6.0675    -0.1251 C.ar    
  19 O19            3.5770     9.2884    -0.1809 O.3     
  20 C20            2.4105    10.1134    -0.2059 C.3     
  21 C21            2.8274    11.5852    -0.2358 C.3     
  22 C22           -0.5663     0.6479     1.2287 C.ar    
  23 C23           -1.8211     0.0356     1.2282 C.ar    
  24 C24           -2.3303    -0.4910     2.3998 C.ar    
  25 C25           -1.5982    -0.4124     3.5735 C.ar    
  26 C26           -0.3527     0.1945     3.5801 C.ar    
  27 C27            0.1691     0.7195     2.4133 C.ar    
  28 F28            0.3554     0.2680     4.7283 F       
  29 F29           -3.5445    -1.0834     2.4009 F       
  30 H30            0.6144     3.8616    -0.0768 H       
  31 H31            4.8600     3.2674    -0.0394 H       
  32 H32            1.4715    -0.7649     0.1247 H       
  33 H33            4.0440    -1.0195    -1.0129 H       
  34 H34            4.2146    -0.9895     0.7586 H       
  35 H35            2.6153    -2.8753     0.9446 H       
  36 H36            2.4447    -2.9054    -0.8269 H       
  37 H37            4.0655    -4.6180    -0.0597 H       
  38 H38            4.8685    -3.3777    -1.0523 H       
  39 H39            5.0390    -3.3477     0.7192 H       
  40 H40            5.1252     5.0532    -0.0771 H       
  41 H41            5.4745     7.4869    -0.1304 H       
  42 H42            1.2444     8.1020    -0.1679 H       
  43 H43            0.8853     5.6695    -0.1264 H       
  44 H44            1.8224     9.8843    -1.0946 H       
  45 H45            1.8119     9.9234     0.6849 H       
  46 H46            3.4155    11.8144     0.6529 H       
  47 H47            3.4260    11.7753    -1.1266 H       
  48 H48            1.9376    12.2146    -0.2549 H       
  49 H49           -2.3927    -0.0260     0.3140 H       
  50 H50           -2.0002    -0.8254     4.4869 H       
  51 H51            1.1422     1.1881     2.4186 H       
@<TRIPOS>BOND
   1    1    2 2
   2    1    4 1
   3    1   22 1
   4    3    4 ar
   5    3    8 ar
   6    3    9 1
   7    4    5 ar
   8    5    6 ar
   9    5   30 1
  10    6    7 ar
  11    6   13 1
  12    7    8 ar
  13    7   31 1
  14    9   10 1
  15    9   32 1
  16   10   11 1
  17   10   33 1
  18   10   34 1
  19   11   12 1
  20   11   35 1
  21   11   36 1
  22   12   37 1
  23   12   38 1
  24   12   39 1
  25   13   14 ar
  26   13   18 ar
  27   14   15 ar
  28   14   40 1
  29   15   16 ar
  30   15   41 1
  31   16   17 ar
  32   16   19 1
  33   17   18 ar
  34   17   42 1
  35   18   43 1
  36   19   20 1
  37   20   21 1
  38   20   44 1
  39   20   45 1
  40   21   46 1
  41   21   47 1
  42   21   48 1
  43   22   23 ar
  44   22   27 ar
  45   23   24 ar
  46   23   49 1
  47   24   25 ar
  48   24   29 1
  49   25   26 ar
  50   25   50 1
  51   26   27 ar
  52   26   28 1
  53   27   51 1

#	End of record

