#	Name: ASD02448184
#	Creating user name:	WinNT
#	Creation time:	15. 06. 2019 20:22

#	Modifying user name:	WinNT
#	Modification time:	15. 06. 2019 20:22

#	Program:	/corina/corina34_cracker 3.40 0067  02.08.2006

@<TRIPOS>MOLECULE
ASD02448184
  81   86    0    0    0
SMALL
NO_CHARGES


@<TRIPOS>ATOM
   1 C1            -0.2034    -6.4682     3.4830 C.ar    
   2 C2             0.3212    -5.4167     2.7566 C.ar    
   3 C3             0.2194    -5.4081     1.3713 C.ar    
   4 C4            -0.4097    -6.4565     0.7170 C.ar    
   5 C5            -0.9361    -7.5118     1.4492 C.ar    
   6 C6            -0.8310    -7.5145     2.8346 C.ar    
   7 N7            -1.5710    -8.5695     0.7940 N.am    
   8 C8            -1.7375    -9.9515     1.2623 C.3     
   9 C9            -2.4791   -10.7786     0.2623 C.2     
  10 N10           -2.8454   -10.1227    -0.8479 N.am    
  11 S11           -2.3202    -8.5504    -0.6965 S.o2    
  12 O12           -2.7296   -11.9517     0.4412 O.2     
  13 O13           -3.4759    -7.7315    -0.5824 O.2     
  14 O14           -1.3014    -8.3534    -1.6672 O.2     
  15 N15            0.7518    -4.3402     0.6353 N.pl3   
  16 C16            1.6699    -4.4295    -0.3768 C.2     
  17 C17            0.4484    -3.0245     0.7897 C.2     
  18 N18            1.1383    -2.3289    -0.0704 N.2     
  19 C19            1.9024    -3.1617    -0.8061 C.2     
  20 C20            2.8323    -2.7639    -1.8915 C.ar    
  21 C21            2.9757    -1.4190    -2.2324 C.ar    
  22 C22            3.5697    -3.7319    -2.5700 C.ar    
  23 C23            4.4336    -3.3569    -3.5791 C.ar    
  24 C24            4.5688    -2.0215    -3.9176 C.ar    
  25 C25            3.8427    -1.0545    -3.2435 C.ar    
  26 C26           -1.8704    -2.2762     1.1353 C.ar    
  27 C27           -2.7605    -3.3335     1.0774 C.ar    
  28 C28           -2.2114    -1.0478     0.5983 C.ar    
  29 C29           -3.4429    -0.8706     0.0012 C.ar    
  30 C30           -4.3439    -1.9324    -0.0601 C.ar    
  31 C31           -3.9948    -3.1680     0.4827 C.ar    
  32 C32           -5.6689    -1.7482    -0.7000 C.ar    
  33 Cl33           5.6576    -1.5571    -5.1874 Cl      
  34 Cl34           2.0656    -0.2058    -1.3876 Cl      
  35 C35           -0.5265    -2.4615     1.7916 C.3     
  36 C36           -6.5681    -2.8128    -0.7597 C.ar    
  37 C37           -7.7987    -2.6427    -1.3536 C.ar    
  38 C38           -8.1463    -1.4038    -1.8963 C.ar    
  39 C39           -7.2453    -0.3385    -1.8361 C.ar    
  40 C40           -6.0174    -0.5089    -1.2367 C.ar    
  41 C41           -9.4659    -1.2204    -2.5341 C.2     
  42 C42           -9.7957    -0.0435    -3.0495 C.2     
  43 C43          -11.1420     0.1436    -3.7002 C.3     
  44 C44          -11.8653     1.3224    -3.0459 C.3     
  45 C45          -11.0323     2.5936    -3.2227 C.3     
  46 C46          -13.2322     1.5124    -3.7065 C.3     
  47 C47          -12.0546     1.0402    -1.5541 C.3     
  48 H48           -0.1189    -6.4745     4.5596 H       
  49 H49            0.8109    -4.6002     3.2664 H       
  50 H50           -0.4904    -6.4517    -0.3600 H       
  51 H51           -1.2402    -8.3351     3.4051 H       
  52 H52           -0.7549   -10.3920     1.4315 H       
  53 H53           -2.2906    -9.9460     2.2016 H       
  54 H54           -3.3306   -10.4954    -1.6006 H       
  55 H55            2.1218    -5.3327    -0.7594 H       
  56 H56            3.4658    -4.7741    -2.3065 H       
  57 H57            5.0054    -4.1068    -4.1054 H       
  58 H58            3.9515    -0.0140    -3.5116 H       
  59 H59           -2.4889    -4.2904     1.4980 H       
  60 H60           -1.5126    -0.2257     0.6468 H       
  61 H61           -3.7082     0.0889    -0.4174 H       
  62 H62           -4.6889    -3.9942     0.4377 H       
  63 H63           -0.6238    -3.1505     2.6306 H       
  64 H64           -0.1623    -1.4994     2.1518 H       
  65 H65           -6.2990    -3.7709    -0.3402 H       
  66 H66           -8.4947    -3.4672    -1.4001 H       
  67 H67           -7.5132     0.6200    -2.2556 H       
  68 H68           -5.3205     0.3148    -1.1900 H       
  69 H69          -10.1623    -2.0446    -2.5809 H       
  70 H70           -9.0993     0.7807    -3.0028 H       
  71 H71          -11.0071     0.3447    -4.7630 H       
  72 H72          -11.7354    -0.7620    -3.5742 H       
  73 H73          -10.8974     2.7947    -4.2855 H       
  74 H74          -11.5476     3.4334    -2.7566 H       
  75 H75          -10.0585     2.4583    -2.7521 H       
  76 H76          -13.8256     0.6068    -3.5805 H       
  77 H77          -13.7475     2.3522    -3.2404 H       
  78 H78          -13.0973     1.7135    -4.7693 H       
  79 H79          -11.0808     0.9049    -1.0835 H       
  80 H80          -12.5699     1.8800    -1.0880 H       
  81 H81          -12.6481     0.1346    -1.4281 H       
@<TRIPOS>BOND
   1    1    2 ar
   2    1    6 ar
   3    1   48 1
   4    2    3 ar
   5    2   49 1
   6    3    4 ar
   7    3   15 1
   8    4    5 ar
   9    4   50 1
  10    5    6 ar
  11    5    7 1
  12    6   51 1
  13    7    8 1
  14    7   11 am
  15    8    9 1
  16    8   52 1
  17    8   53 1
  18    9   10 am
  19    9   12 2
  20   10   11 am
  21   10   54 1
  22   11   13 2
  23   11   14 2
  24   15   16 1
  25   15   17 1
  26   16   19 2
  27   16   55 1
  28   17   18 2
  29   17   35 1
  30   18   19 1
  31   19   20 1
  32   20   21 ar
  33   20   22 ar
  34   21   34 1
  35   21   25 ar
  36   22   23 ar
  37   22   56 1
  38   23   24 ar
  39   23   57 1
  40   24   25 ar
  41   24   33 1
  42   25   58 1
  43   26   27 ar
  44   26   28 ar
  45   26   35 1
  46   27   31 ar
  47   27   59 1
  48   28   29 ar
  49   28   60 1
  50   29   30 ar
  51   29   61 1
  52   30   31 ar
  53   30   32 1
  54   31   62 1
  55   32   36 ar
  56   32   40 ar
  57   35   63 1
  58   35   64 1
  59   36   37 ar
  60   36   65 1
  61   37   38 ar
  62   37   66 1
  63   38   39 ar
  64   38   41 1
  65   39   40 ar
  66   39   67 1
  67   40   68 1
  68   41   42 2
  69   41   69 1
  70   42   43 1
  71   42   70 1
  72   43   44 1
  73   43   71 1
  74   43   72 1
  75   44   45 1
  76   44   46 1
  77   44   47 1
  78   45   73 1
  79   45   74 1
  80   45   75 1
  81   46   76 1
  82   46   77 1
  83   46   78 1
  84   47   79 1
  85   47   80 1
  86   47   81 1

#	End of record

