#	Name: ASD00170421
#	Creating user name:	WinNT
#	Creation time:	15. 06. 2019 18:32

#	Modifying user name:	WinNT
#	Modification time:	15. 06. 2019 18:32

#	Program:	/corina/corina34_cracker 3.40 0067  02.08.2006

@<TRIPOS>MOLECULE
ASD00170421
  46   47    0    0    0
SMALL
NO_CHARGES


@<TRIPOS>ATOM
   1 C1            -0.3480     1.7565     0.5039 C.2     
   2 C2            -0.2533     0.3984     0.3062 C.2     
   3 C3            -1.5475    -0.2453     0.2235 C.2     
   4 C4            -2.5591     0.5988     0.3542 C.2     
   5 S5            -1.9805     2.2376     0.5946 S.3     
   6 C6            -1.7253    -1.7264     0.0098 C.3     
   7 N7             0.7301     2.6105     0.6189 N.pl3   
   8 C8             1.0170    -0.3177     0.1920 C.2     
   9 C9             1.5971    -0.5862    -1.1415 C.ar    
  10 O10            1.5969    -0.6927     1.1950 O.2     
  11 C11            2.8579    -1.1756    -1.2515 C.ar    
  12 C12            3.3935    -1.4240    -2.4977 C.ar    
  13 C13            2.6831    -1.0900    -3.6390 C.ar    
  14 C14            1.4319    -0.5047    -3.5361 C.ar    
  15 C15            0.8836    -0.2567    -2.2954 C.ar    
  16 Cl16           3.3638    -1.4058    -5.2044 Cl      
  17 N17           -1.5330    -2.4316     1.2840 N.3     
  18 C18           -2.5924    -2.0870     2.2415 C.3     
  19 C19           -1.4631    -3.8842     1.0764 C.3     
  20 C20           -0.0954    -4.2513     0.4970 C.3     
  21 C21           -2.1631    -2.5049     3.6493 C.3     
  22 C22           -3.2063    -2.0300     4.6627 C.3     
  23 C23           -0.0650    -5.7454     0.1688 C.3     
  24 H24           -3.6008     0.3159     0.3212 H       
  25 H25           -2.7300    -1.9213    -0.3653 H       
  26 H26           -0.9920    -2.0795    -0.7152 H       
  27 H27            1.6320     2.2537     0.6340 H       
  28 H28            0.5859     3.5674     0.6846 H       
  29 H29            3.4129    -1.4360    -0.3624 H       
  30 H30            4.3689    -1.8795    -2.5841 H       
  31 H31            0.8830    -0.2458    -4.4294 H       
  32 H32           -0.0920     0.1998    -2.2164 H       
  33 H33           -2.7666    -1.0113     2.2191 H       
  34 H34           -3.5102    -2.6094     1.9715 H       
  35 H35           -1.6028    -4.3945     2.0294 H       
  36 H36           -2.2458    -4.1901     0.3822 H       
  37 H37            0.0804    -3.6760    -0.4119 H       
  38 H38            0.6814    -4.0238     1.2270 H       
  39 H39           -2.0789    -3.5907     3.6962 H       
  40 H40           -1.1981    -2.0553     3.8834 H       
  41 H41           -2.9005    -2.3277     5.6657 H       
  42 H42           -3.2905    -0.9443     4.6158 H       
  43 H43           -4.1713    -2.4797     4.4287 H       
  44 H44           -0.2409    -6.3207     1.0777 H       
  45 H45           -0.8418    -5.9729    -0.5612 H       
  46 H46            0.9093    -6.0069    -0.2440 H       
@<TRIPOS>BOND
   1    1    2 2
   2    1    7 1
   3    1    5 1
   4    2    3 1
   5    2    8 1
   6    3    4 2
   7    3    6 1
   8    4    5 1
   9    4   24 1
  10    6   17 1
  11    6   25 1
  12    6   26 1
  13    7   27 1
  14    7   28 1
  15    8    9 1
  16    8   10 2
  17    9   11 ar
  18    9   15 ar
  19   11   12 ar
  20   11   29 1
  21   12   13 ar
  22   12   30 1
  23   13   14 ar
  24   13   16 1
  25   14   15 ar
  26   14   31 1
  27   15   32 1
  28   17   18 1
  29   17   19 1
  30   18   21 1
  31   18   33 1
  32   18   34 1
  33   19   20 1
  34   19   35 1
  35   19   36 1
  36   20   23 1
  37   20   37 1
  38   20   38 1
  39   21   22 1
  40   21   39 1
  41   21   40 1
  42   22   41 1
  43   22   42 1
  44   22   43 1
  45   23   44 1
  46   23   45 1
  47   23   46 1

#	End of record

