#	Name: ASD01810033
#	Creating user name:	WinNT
#	Creation time:	15. 06. 2019 19:23

#	Modifying user name:	WinNT
#	Modification time:	15. 06. 2019 19:23

#	Program:	/corina/corina34_cracker 3.40 0067  02.08.2006

@<TRIPOS>MOLECULE
ASD01810033
  38   42    0    0    0
SMALL
NO_CHARGES


@<TRIPOS>ATOM
   1 N1            -0.0163     1.3479     0.0095 N.am    
   2 C2             0.0021    -0.0041     0.0020 C.2     
   3 C3            -1.2676    -0.7369    -0.3572 C.3     
   4 C4            -2.5159    -0.1236     0.2727 C.3     
   5 C5            -2.5123     1.3734     0.1209 C.ar    
   6 C6            -1.2663     1.9814     0.0316 C.ar    
   7 C7            -3.6306     2.1619     0.0680 C.ar    
   8 C8            -3.5028     3.5486    -0.0484 C.ar    
   9 C9            -2.2641     4.1496    -0.0990 C.ar    
  10 C10           -1.1115     3.3588    -0.0516 C.ar    
  11 C11            0.9562     2.3069     0.0053 C.ar    
  12 C12            0.3358     3.5839    -0.0418 C.ar    
  13 C13            1.0869     4.7573    -0.0674 C.ar    
  14 C14            2.4648     4.6270    -0.0387 C.ar    
  15 C15            3.0767     3.3830     0.0131 C.ar    
  16 C16            2.3444     2.2023     0.0385 C.ar    
  17 C17           -4.7719     4.3610    -0.1221 C.3     
  18 C18           -4.4763     5.8276     0.1892 C.3     
  19 N19           -3.3523     6.2665    -0.6531 N.3     
  20 C20           -2.1061     5.6436    -0.1971 C.3     
  21 O21            1.0140    -0.6129     0.2768 O.2     
  22 O22            4.4338     3.3172     0.0416 O.3     
  23 H23           -1.3821    -0.7282    -1.4411 H       
  24 H24           -1.1804    -1.7715    -0.0253 H       
  25 H25           -3.4010    -0.5313    -0.2156 H       
  26 H26           -2.5437    -0.3763     1.3326 H       
  27 H27           -4.6113     1.7121     0.1159 H       
  28 H28            0.6141     5.7275    -0.1082 H       
  29 H29            3.0785     5.5155    -0.0575 H       
  30 H30            2.8332     1.2401     0.0793 H       
  31 H31           -5.1938     4.2821    -1.1240 H       
  32 H32           -5.4901     3.9756     0.6016 H       
  33 H33           -5.3560     6.4328    -0.0295 H       
  34 H34           -4.2087     5.9320     1.2407 H       
  35 H35           -3.5260     6.0586    -1.6250 H       
  36 H36           -1.8429     6.0420     0.7828 H       
  37 H37           -1.3093     5.8749    -0.9040 H       
  38 H38            4.8094     3.3265     0.9326 H       
@<TRIPOS>BOND
   1    1    2 am
   2    1   11 1
   3    1    6 1
   4    2    3 1
   5    2   21 2
   6    3    4 1
   7    3   23 1
   8    3   24 1
   9    4    5 1
  10    4   25 1
  11    4   26 1
  12    5    6 ar
  13    5    7 ar
  14    6   10 ar
  15    7    8 ar
  16    7   27 1
  17    8    9 ar
  18    8   17 1
  19    9   10 ar
  20    9   20 1
  21   10   12 1
  22   11   12 ar
  23   11   16 ar
  24   12   13 ar
  25   13   14 ar
  26   13   28 1
  27   14   15 ar
  28   14   29 1
  29   15   16 ar
  30   15   22 1
  31   16   30 1
  32   17   18 1
  33   17   31 1
  34   17   32 1
  35   18   19 1
  36   18   33 1
  37   18   34 1
  38   19   20 1
  39   19   35 1
  40   20   36 1
  41   20   37 1
  42   22   38 1

#	End of record

