#	Name: ASD02198801
#	Creating user name:	WinNT
#	Creation time:	15. 06. 2019 20:20

#	Modifying user name:	WinNT
#	Modification time:	15. 06. 2019 20:20

#	Program:	/corina/corina34_cracker 3.40 0067  02.08.2006

@<TRIPOS>MOLECULE
ASD02198801
  45   49    0    0    0
SMALL
NO_CHARGES


@<TRIPOS>ATOM
   1 F1             2.2526    -1.7126     2.4714 F       
   2 C2            -0.0433     1.5018    -0.1148 C.2     
   3 C3            -0.0730     0.1621     0.0977 C.2     
   4 N4             1.0713    -0.5396     0.2600 N.pl3   
   5 N5             2.2358    -0.0048     0.2263 N.2     
   6 C6             2.4073     1.2846     0.0281 C.2     
   7 C7             1.2216     2.1358    -0.1603 C.2     
   8 C8             0.9798    -1.9187     0.4761 C.ar    
   9 C9             1.5804    -2.4896     1.5941 C.ar    
  10 C10            1.4891    -3.8523     1.8060 C.ar    
  11 C11            0.7984    -4.6501     0.9036 C.ar    
  12 C12            0.1995    -4.0795    -0.2125 C.ar    
  13 C13            0.2844    -2.7184    -0.4224 C.ar    
  14 C14            3.7643     1.8669    -0.0046 C.2     
  15 N15            4.3062     2.6069    -1.0177 N.pl3   
  16 N16            5.6083     2.9581    -0.6402 N.2     
  17 C17            5.8523     2.4582     0.5449 C.2     
  18 C18            4.7201     1.7712     0.9830 C.2     
  19 C19            3.6729     2.9520    -2.2185 C.ar    
  20 C20            3.8069     4.2352    -2.7318 C.ar    
  21 C21            3.1814     4.5731    -3.9162 C.ar    
  22 C22            2.4221     3.6354    -4.5909 C.ar    
  23 C23            2.2863     2.3552    -4.0823 C.ar    
  24 C24            2.9145     2.0098    -2.9007 C.ar    
  25 O25            1.3245     3.3389    -0.3482 O.2     
  26 N26            0.7058    -6.0321     1.1186 N.pl3   
  27 N27            1.2581    -6.7378     2.1953 N.2     
  28 C28            0.9604    -8.0041     2.0504 C.2     
  29 C29            0.2096    -8.1462     0.8783 C.2     
  30 C30            0.0625    -6.9193     0.3264 C.2     
  31 Cl31           1.3319     1.1806    -4.9328 Cl      
  32 H32           -0.9547     2.0654    -0.2493 H       
  33 H33           -1.0229    -0.3504     0.1380 H       
  34 H34            1.9551    -4.2965     2.6731 H       
  35 H35           -0.3369    -4.7012    -0.9141 H       
  36 H36           -0.1819    -2.2758    -1.2902 H       
  37 H37            6.7761     2.5638     1.0943 H       
  38 H38            4.6145     1.2514     1.9237 H       
  39 H39            4.3995     4.9687    -2.2053 H       
  40 H40            3.2853     5.5713    -4.3153 H       
  41 H41            1.9338     3.9022    -5.5165 H       
  42 H42            2.8088     1.0108    -2.5041 H       
  43 H43            1.2454    -8.8019     2.7202 H       
  44 H44           -0.1856    -9.0712     0.4852 H       
  45 H45           -0.4684    -6.6908    -0.5859 H       
@<TRIPOS>BOND
   1    1    9 1
   2    2    3 2
   3    2    7 1
   4    2   32 1
   5    3    4 1
   6    3   33 1
   7    4    5 1
   8    4    8 1
   9    5    6 2
  10    6    7 1
  11    6   14 1
  12    7   25 2
  13    8    9 ar
  14    8   13 ar
  15    9   10 ar
  16   10   11 ar
  17   10   34 1
  18   11   12 ar
  19   11   26 1
  20   12   13 ar
  21   12   35 1
  22   13   36 1
  23   14   15 1
  24   14   18 2
  25   15   16 1
  26   15   19 1
  27   16   17 2
  28   17   18 1
  29   17   37 1
  30   18   38 1
  31   19   20 ar
  32   19   24 ar
  33   20   21 ar
  34   20   39 1
  35   21   22 ar
  36   21   40 1
  37   22   23 ar
  38   22   41 1
  39   23   24 ar
  40   23   31 1
  41   24   42 1
  42   26   27 1
  43   26   30 1
  44   27   28 2
  45   28   29 1
  46   28   43 1
  47   29   30 2
  48   29   44 1
  49   30   45 1

#	End of record

