#	Name: ASD03570053
#	Creating user name:	WinNT
#	Creation time:	15. 06. 2019 20:43

#	Modifying user name:	WinNT
#	Modification time:	15. 06. 2019 20:43

#	Program:	/corina/corina34_cracker 3.40 0067  02.08.2006

@<TRIPOS>MOLECULE
ASD03570053
  61   64    0    0    0
SMALL
NO_CHARGES


@<TRIPOS>ATOM
   1 C1            -1.1057     2.4187     2.3984 C.ar    
   2 C2            -1.2466     1.2492     3.1356 C.ar    
   3 C3            -0.6152     1.1253     4.3587 C.ar    
   4 C4             0.1556     2.1638     4.8486 C.ar    
   5 C5             0.2969     3.3285     4.1172 C.ar    
   6 C6            -0.3310     3.4584     2.8934 C.ar    
   7 N7            -1.7401     2.5459     1.1546 N.pl3   
   8 C8            -1.4530     3.4703     0.1993 C.2     
   9 C9            -2.2927     3.2501    -0.8476 C.2     
  10 C10           -3.1110     2.1646    -0.5208 C.2     
  11 N11           -2.7788     1.7396     0.6715 N.2     
  12 C12           -4.1889     1.5790    -1.3962 C.3     
  13 O13           -0.5027     4.4362     0.2767 O.3     
  14 C14            0.7980     4.0474     0.3494 C.ar    
  15 C15            3.4486     3.2539     0.4965 C.ar    
  16 C16            2.4392     2.3095     0.5340 C.ar    
  17 C17            1.1161     2.7031     0.4608 C.ar    
  18 C18            1.8148     4.9989     0.3062 C.ar    
  19 C19            3.1401     4.5961     0.3803 C.ar    
  20 N20            1.4995     6.3591     0.1878 N.am    
  21 C21            2.3227     7.1854    -0.4876 C.2     
  22 N22            2.0694     8.5087    -0.5222 N.am    
  23 O23            3.2939     6.7370    -1.0657 O.2     
  24 C24            2.9751     9.3785    -1.1396 C.ar    
  25 C25            3.1842    10.6492    -0.6198 C.ar    
  26 C26            3.6710     8.9709    -2.2701 C.ar    
  27 C27            4.5643     9.8318    -2.8772 C.ar    
  28 C28            4.7663    11.0983    -2.3602 C.ar    
  29 C29            4.0788    11.5053    -1.2315 C.ar    
  30 C30            5.7424    12.0347    -3.0245 C.3     
  31 C31            5.3032    12.2893    -4.4679 C.3     
  32 C32            5.7780    13.3601    -2.2610 C.3     
  33 C33            7.1370    11.4054    -3.0193 C.3     
  34 Cl34          -2.2150    -0.0541     2.5214 Cl      
  35 H35           -0.7240     0.2168     4.9325 H       
  36 H36            0.6478     2.0649     5.8047 H       
  37 H37            0.8990     4.1378     4.5030 H       
  38 H38           -0.2193     4.3684     2.3225 H       
  39 H39           -2.3224     3.8141    -1.7682 H       
  40 H40           -3.7625     0.7954    -2.0226 H       
  41 H41           -4.9752     1.1565    -0.7707 H       
  42 H42           -4.6085     2.3615    -2.0284 H       
  43 H43            4.4809     2.9416     0.5540 H       
  44 H44            2.6851     1.2618     0.6246 H       
  45 H45            0.3302     1.9630     0.4907 H       
  46 H46            3.9305     5.3315     0.3515 H       
  47 H47            0.6888     6.7061     0.5919 H       
  48 H48            1.2593     8.8581    -0.1191 H       
  49 H49            2.6476    10.9677     0.2617 H       
  50 H50            3.5142     7.9816    -2.6739 H       
  51 H51            5.1058     9.5153    -3.7564 H       
  52 H52            4.2418    12.4937    -0.8278 H       
  53 H53            4.3097    12.7376    -4.4716 H       
  54 H54            6.0092    12.9666    -4.9484 H       
  55 H55            5.2778    11.3451    -5.0119 H       
  56 H56            6.0909    13.1787    -1.2327 H       
  57 H57            6.4840    14.0374    -2.7415 H       
  58 H58            4.7845    13.8083    -2.2647 H       
  59 H59            7.1116    10.4612    -3.5633 H       
  60 H60            7.8430    12.0827    -3.4998 H       
  61 H61            7.4499    11.2241    -1.9910 H       
@<TRIPOS>BOND
   1    1    2 ar
   2    1    6 ar
   3    1    7 1
   4    2    3 ar
   5    2   34 1
   6    3    4 ar
   7    3   35 1
   8    4    5 ar
   9    4   36 1
  10    5    6 ar
  11    5   37 1
  12    6   38 1
  13    7    8 1
  14    7   11 1
  15    8    9 2
  16    8   13 1
  17    9   10 1
  18    9   39 1
  19   10   11 2
  20   10   12 1
  21   12   40 1
  22   12   41 1
  23   12   42 1
  24   13   14 1
  25   14   18 ar
  26   14   17 ar
  27   15   16 ar
  28   15   19 ar
  29   15   43 1
  30   16   17 ar
  31   16   44 1
  32   17   45 1
  33   18   19 ar
  34   18   20 1
  35   19   46 1
  36   20   21 am
  37   20   47 1
  38   21   22 am
  39   21   23 2
  40   22   24 1
  41   22   48 1
  42   24   26 ar
  43   24   25 ar
  44   25   29 ar
  45   25   49 1
  46   26   27 ar
  47   26   50 1
  48   27   28 ar
  49   27   51 1
  50   28   29 ar
  51   28   30 1
  52   29   52 1
  53   30   31 1
  54   30   32 1
  55   30   33 1
  56   31   53 1
  57   31   54 1
  58   31   55 1
  59   32   56 1
  60   32   57 1
  61   32   58 1
  62   33   59 1
  63   33   60 1
  64   33   61 1

#	End of record

