#	Name: ASD03331524
#	Creating user name:	WinNT
#	Creation time:	15. 06. 2019 20:39

#	Modifying user name:	WinNT
#	Modification time:	15. 06. 2019 20:39

#	Program:	/corina/corina34_cracker 3.40 0067  02.08.2006

@<TRIPOS>MOLECULE
ASD03331524
  62   64    0    0    0
SMALL
NO_CHARGES


@<TRIPOS>ATOM
   1 C1             0.0240     1.0695    -0.0240 C.ar    
   2 C2             0.0652    -0.4052    -0.1357 C.2     
   3 N3            -0.9787    -1.2537     0.1204 N.pl3   
   4 C4            -0.5239    -2.5140    -0.0669 C.2     
   5 C5             0.7754    -2.4227    -0.4701 C.2     
   6 N6             1.1050    -1.1141    -0.5016 N.2     
   7 C7             1.6596    -3.5501    -0.8148 C.2     
   8 N8             2.9298    -3.3169    -1.2004 N.am    
   9 C9             1.2064     1.7935     0.1311 C.ar    
  10 O10            1.2432    -4.6910    -0.7513 O.2     
  11 C11            3.8088    -4.4377    -1.5431 C.3     
  12 C12            1.1614     3.1687     0.2343 C.ar    
  13 C13           -0.0530     3.8296     0.1846 C.ar    
  14 C14           -1.2291     3.1174     0.0310 C.ar    
  15 C15           -1.1969     1.7424    -0.0791 C.ar    
  16 C16           -2.3332    -0.8402     0.4970 C.3     
  17 C17           -3.0058    -1.9342     1.3295 C.3     
  18 N18           -3.5715    -2.9471     0.4252 N.am    
  19 C19           -2.6816    -3.6472    -0.5030 C.3     
  20 C20           -1.3057    -3.7804     0.1580 C.3     
  21 C21            3.5912    -4.8276    -3.0065 C.3     
  22 N22            6.1809    -4.9642    -1.0797 N.am    
  23 C23            5.2453    -4.0297    -1.3402 C.2     
  24 C24            7.5928    -4.5830    -0.9933 C.3     
  25 O25            5.5595    -2.8604    -1.4113 O.2     
  26 C26            3.7959    -3.6004    -3.8971 C.3     
  27 C27            4.5931    -5.9153    -3.3988 C.3     
  28 C28            2.1671    -5.3569    -3.1869 C.3     
  29 C29           -4.8897    -3.2270     0.4510 C.2     
  30 C30           -5.4426    -4.3311    -0.4128 C.3     
  31 O31           -5.6308    -2.5903     1.1695 O.2     
  32 H32            3.2620    -2.4069    -1.2510 H       
  33 H33            2.1550     1.2787     0.1707 H       
  34 H34            3.5789    -5.2889    -0.9022 H       
  35 H35            2.0760     3.7303     0.3544 H       
  36 H36           -0.0831     4.9061     0.2665 H       
  37 H37           -2.1740     3.6390    -0.0067 H       
  38 H38           -2.1156     1.1875    -0.1994 H       
  39 H39           -2.2812     0.0783     1.0816 H       
  40 H40           -2.9195    -0.6598    -0.4040 H       
  41 H41           -2.2684    -2.4001     1.9831 H       
  42 H42           -3.8028    -1.4965     1.9308 H       
  43 H43           -3.0824    -4.6373    -0.7200 H       
  44 H44           -2.5916    -3.0760    -1.4270 H       
  45 H45           -0.7703    -4.6218    -0.2818 H       
  46 H46           -1.4303    -3.9462     1.2281 H       
  47 H47            5.9194    -5.8892    -0.9495 H       
  48 H48            8.1949    -5.4657    -0.7776 H       
  49 H49            7.9107    -4.1492    -1.9414 H       
  50 H50            7.7233    -3.8506    -0.1967 H       
  51 H51            4.8105    -3.2234    -3.7685 H       
  52 H52            3.6408    -3.8782    -4.9396 H       
  53 H53            3.0821    -2.8255    -3.6175 H       
  54 H54            4.3957    -6.8172    -2.8195 H       
  55 H55            4.4916    -6.1365    -4.4613 H       
  56 H56            5.6057    -5.5671    -3.1953 H       
  57 H57            1.4533    -4.5819    -2.9073 H       
  58 H58            2.0120    -5.6346    -4.2294 H       
  59 H59            2.0213    -6.2311    -2.5524 H       
  60 H60           -4.6230    -4.8421    -0.9182 H       
  61 H61           -5.9853    -5.0424     0.2098 H       
  62 H62           -6.1193    -3.9075    -1.1549 H       
@<TRIPOS>BOND
   1    1    2 1
   2    1    9 ar
   3    1   15 ar
   4    2    3 1
   5    2    6 2
   6    3    4 1
   7    3   16 1
   8    4    5 2
   9    4   20 1
  10    5    6 1
  11    5    7 1
  12    7    8 am
  13    7   10 2
  14    8   11 1
  15    8   32 1
  16    9   12 ar
  17    9   33 1
  18   11   21 1
  19   11   23 1
  20   11   34 1
  21   12   13 ar
  22   12   35 1
  23   13   14 ar
  24   13   36 1
  25   14   15 ar
  26   14   37 1
  27   15   38 1
  28   16   17 1
  29   16   39 1
  30   16   40 1
  31   17   18 1
  32   17   41 1
  33   17   42 1
  34   18   19 1
  35   18   29 am
  36   19   20 1
  37   19   43 1
  38   19   44 1
  39   20   45 1
  40   20   46 1
  41   21   26 1
  42   21   27 1
  43   21   28 1
  44   22   23 am
  45   22   24 1
  46   22   47 1
  47   23   25 2
  48   24   48 1
  49   24   49 1
  50   24   50 1
  51   26   51 1
  52   26   52 1
  53   26   53 1
  54   27   54 1
  55   27   55 1
  56   27   56 1
  57   28   57 1
  58   28   58 1
  59   28   59 1
  60   29   30 1
  61   29   31 2
  62   30   60 1
  63   30   61 1
  64   30   62 1

#	End of record

