#	Name: ASD01915080
#	Creating user name:	WinNT
#	Creation time:	15. 06. 2019 20:04

#	Modifying user name:	WinNT
#	Modification time:	15. 06. 2019 20:04

#	Program:	/corina/corina34_cracker 3.40 0067  02.08.2006

@<TRIPOS>MOLECULE
ASD01915080
  37   40    0    0    0
SMALL
NO_CHARGES


@<TRIPOS>ATOM
   1 C1            -0.0169     1.3916     0.0097 C.ar    
   2 C2             0.0021    -0.0041     0.0020 C.ar    
   3 N3            -1.1434    -0.6913     0.0092 N.ar    
   4 C4            -2.3154    -0.0967     0.0236 C.ar    
   5 C5            -2.4139     1.2894     0.0316 C.ar    
   6 C6            -1.2658     2.0484     0.0306 C.ar    
   7 C7             1.3290     1.9580    -0.0001 C.2     
   8 C8             2.3059     1.0546    -0.0143 C.2     
   9 S9             1.6661    -0.5768    -0.0169 S.3     
  10 C10            1.5855     3.4176     0.0053 C.ar    
  11 C11            1.2156     4.1890     1.1063 C.ar    
  12 S12            4.0233     1.4484    -0.0295 S.o2    
  13 O13            4.6882     0.3226    -0.5861 O.2     
  14 O14            4.1297     2.7588    -0.5686 O.2     
  15 C15            4.5484     1.5567     1.6490 C.ar    
  16 C16            5.0219     0.4321     2.2988 C.ar    
  17 C17            4.4921     2.7675     2.3138 C.ar    
  18 C18            4.9043     2.8532     3.6302 C.ar    
  19 C19            5.3729     1.7268     4.2828 C.ar    
  20 C20            5.4335     0.5164     3.6155 C.ar    
  21 C21            1.4567     5.5475     1.1061 C.ar    
  22 C22            2.0645     6.1451     0.0151 C.ar    
  23 C23            2.4338     5.3838    -1.0808 C.ar    
  24 C24            2.2030     4.0235    -1.0884 C.ar    
  25 F25           -3.4409    -0.8441     0.0303 F       
  26 Cl26           2.3639     7.8550     0.0208 Cl      
  27 Cl27           5.8908     1.8337     5.9363 Cl      
  28 H28           -3.3826     1.7668     0.0430 H       
  29 H29           -1.3197     3.1270     0.0370 H       
  30 H30            0.7408     3.7240     1.9576 H       
  31 H31            5.0698    -0.5125     1.7775 H       
  32 H32            4.1262     3.6466     1.8043 H       
  33 H33            4.8609     3.7993     4.1493 H       
  34 H34            5.7989    -0.3633     4.1245 H       
  35 H35            1.1705     6.1459     1.9584 H       
  36 H36            2.9076     5.8549    -1.9293 H       
  37 H37            2.4918     3.4305    -1.9435 H       
@<TRIPOS>BOND
   1    1    2 ar
   2    1    7 1
   3    1    6 ar
   4    2    3 ar
   5    2    9 1
   6    3    4 ar
   7    4    5 ar
   8    4   25 1
   9    5    6 ar
  10    5   28 1
  11    6   29 1
  12    7    8 2
  13    7   10 1
  14    8    9 1
  15    8   12 1
  16   10   11 ar
  17   10   24 ar
  18   11   21 ar
  19   11   30 1
  20   12   13 2
  21   12   14 2
  22   12   15 1
  23   15   16 ar
  24   15   17 ar
  25   16   20 ar
  26   16   31 1
  27   17   18 ar
  28   17   32 1
  29   18   19 ar
  30   18   33 1
  31   19   20 ar
  32   19   27 1
  33   20   34 1
  34   21   22 ar
  35   21   35 1
  36   22   23 ar
  37   22   26 1
  38   23   24 ar
  39   23   36 1
  40   24   37 1

#	End of record

