#	Name: ASD02770012
#	Creating user name:	WinNT
#	Creation time:	15. 06. 2019 20:26

#	Modifying user name:	WinNT
#	Modification time:	15. 06. 2019 20:26

#	Program:	/corina/corina34_cracker 3.40 0067  02.08.2006

@<TRIPOS>MOLECULE
ASD02770012
  42   43    0    0    0
SMALL
NO_CHARGES


@<TRIPOS>ATOM
   1 C1             0.0294     1.7734    -0.2338 C.2     
   2 C2             0.1922     0.3044    -0.2562 C.ar    
   3 C3             1.4527    -0.2580    -0.4652 C.ar    
   4 C4             1.5977    -1.6305    -0.4845 C.ar    
   5 C5             0.4962    -2.4485    -0.2971 C.ar    
   6 C6            -0.7552    -1.8968    -0.0900 C.ar    
   7 C7            -0.9127    -0.5262    -0.0628 C.ar    
   8 O8             0.9944     2.4945    -0.3976 O.2     
   9 N9            -1.1898     2.3133    -0.0374 N.am    
  10 C10           -1.3306     3.6996     0.0734 C.2     
  11 C11           -2.5641     4.2511     0.1387 C.2     
  12 C12           -2.7152     5.6802     0.4535 C.ar    
  13 C13           -3.8171     6.3939    -0.0296 C.ar    
  14 C14           -3.9517     7.7328     0.2701 C.ar    
  15 C15           -3.0001     8.3710     1.0469 C.ar    
  16 C16           -1.9073     7.6720     1.5286 C.ar    
  17 C17           -1.7610     6.3310     1.2420 C.ar    
  18 N18           -5.1166     8.4900    -0.2404 N.pl3   
  19 O19           -5.9546     7.9301    -0.9244 O.2     
  20 O20           -5.2371     9.6729     0.0234 O.2     
  21 C21           -0.1379     4.5584     0.1188 C.2     
  22 O22            0.6879     4.4064     0.9991 O.2     
  23 N23            0.0404     5.5140    -0.8148 N.am    
  24 C24            1.6777     6.7673    -2.0944 C.2     
  25 C25            1.1753     6.4347    -0.7131 C.3     
  26 O26            1.7638     7.9199    -2.4443 O.2     
  27 O27            0.7588     7.6335    -0.0562 O.3     
  28 Br28           3.3038    -2.3953    -0.7680 Br      
  29 H29            2.3122     0.3792    -0.6118 H       
  30 H30            0.6147    -3.5218    -0.3130 H       
  31 H31           -1.6104    -2.5403     0.0548 H       
  32 H32           -1.8896    -0.0971     0.1038 H       
  33 H33           -1.9695     1.7399     0.0272 H       
  34 H34           -3.4380     3.6422    -0.0401 H       
  35 H35           -4.5601     5.8974    -0.6361 H       
  36 H36           -3.1111     9.4201     1.2780 H       
  37 H37           -1.1690     8.1770     2.1337 H       
  38 H38           -0.9099     5.7857     1.6224 H       
  39 H39           -0.5827     5.5921    -1.5540 H       
  40 H40            1.9607     5.9749    -2.7714 H       
  41 H41            1.9742     5.9648    -0.1393 H       
  42 H42            0.0485     8.1054    -0.5122 H       
@<TRIPOS>BOND
   1    1    2 1
   2    1    8 2
   3    1    9 am
   4    2    3 ar
   5    2    7 ar
   6    3    4 ar
   7    3   29 1
   8    4    5 ar
   9    4   28 1
  10    5    6 ar
  11    5   30 1
  12    6    7 ar
  13    6   31 1
  14    7   32 1
  15    9   10 1
  16    9   33 1
  17   10   11 2
  18   10   21 1
  19   11   12 1
  20   11   34 1
  21   12   13 ar
  22   12   17 ar
  23   13   14 ar
  24   13   35 1
  25   14   15 ar
  26   14   18 1
  27   15   16 ar
  28   15   36 1
  29   16   17 ar
  30   16   37 1
  31   17   38 1
  32   18   19 2
  33   18   20 2
  34   21   22 2
  35   21   23 am
  36   23   25 1
  37   23   39 1
  38   24   25 1
  39   24   26 2
  40   24   40 1
  41   25   27 1
  42   25   41 1
  43   27   42 1

#	End of record

