#	Name: ASD01918529
#	Creating user name:	WinNT
#	Creation time:	15. 06. 2019 20:11

#	Modifying user name:	WinNT
#	Modification time:	15. 06. 2019 20:11

#	Program:	/corina/corina34_cracker 3.40 0067  02.08.2006

@<TRIPOS>MOLECULE
ASD01918529
  30   32    0    0    0
SMALL
NO_CHARGES


@<TRIPOS>ATOM
   1 C1            -0.0167     1.3797     0.0096 C.ar    
   2 C2             0.0021    -0.0041     0.0020 C.ar    
   3 C3             1.2199    -0.6674    -0.0132 C.ar    
   4 C4             2.3825     0.0855    -0.0202 C.ar    
   5 C5             2.2890     1.4748    -0.0118 C.ar    
   6 N6             1.1038     2.0709     0.0026 N.ar    
   7 C7             3.5253     2.2955    -0.0187 C.ar    
   8 C8             3.4507     3.6877    -0.0105 C.ar    
   9 C9             4.6442     4.4118    -0.0170 C.ar    
  10 N10            5.7999     3.7502    -0.0307 N.ar    
  11 C11            5.8258     2.4333    -0.0381 C.ar    
  12 N12            4.7236     1.7133    -0.0272 N.ar    
  13 C13            4.6254     5.8949    -0.0093 C.ar    
  14 C14            5.8205     6.6066    -0.0159 C.ar    
  15 C15            3.4091     6.5779    -0.0012 C.ar    
  16 C16            3.3887     7.9599     0.0056 C.ar    
  17 C17            4.5717     8.6738     0.0044 C.ar    
  18 C18            5.7955     8.0008    -0.0086 C.ar    
  19 Cl19           1.8707     8.8021     0.0151 Cl      
  20 C20            7.0216     8.7407    -0.0098 C.1     
  21 N21            7.9942     9.3277    -0.0107 N.1     
  22 H22           -0.9633     1.8996     0.0169 H       
  23 H23           -0.9226    -0.5620     0.0082 H       
  24 H24            1.2609    -1.7466    -0.0190 H       
  25 H25            3.3481    -0.3982    -0.0316 H       
  26 H26            2.4958     4.1921     0.0002 H       
  27 H27            6.7806     1.9286    -0.0492 H       
  28 H28            6.7641     6.0814    -0.0263 H       
  29 H29            2.4811     6.0254    -0.0006 H       
  30 H30            4.5501     9.7536     0.0090 H       
@<TRIPOS>BOND
   1    1    2 ar
   2    1    6 ar
   3    1   22 1
   4    2    3 ar
   5    2   23 1
   6    3    4 ar
   7    3   24 1
   8    4    5 ar
   9    4   25 1
  10    5    6 ar
  11    5    7 1
  12    7    8 ar
  13    7   12 ar
  14    8    9 ar
  15    8   26 1
  16    9   10 ar
  17    9   13 1
  18   10   11 ar
  19   11   12 ar
  20   11   27 1
  21   13   14 ar
  22   13   15 ar
  23   14   18 ar
  24   14   28 1
  25   15   16 ar
  26   15   29 1
  27   16   17 ar
  28   16   19 1
  29   17   18 ar
  30   17   30 1
  31   18   20 1
  32   20   21 3

#	End of record

