#	Name: ASD02810011
#	Creating user name:	WinNT
#	Creation time:	15. 06. 2019 20:26

#	Modifying user name:	WinNT
#	Modification time:	15. 06. 2019 20:26

#	Program:	/corina/corina34_cracker 3.40 0067  02.08.2006

@<TRIPOS>MOLECULE
ASD02810011
 142  143    0    0    0
SMALL
NO_CHARGES


@<TRIPOS>ATOM
   1 C1            -0.1913    -5.1402     1.0252 C.3     
   2 C2           -26.6660     0.1285    -7.5387 C.3     
   3 C3            -1.2688    -1.8638     2.4084 C.3     
   4 C4            -1.4729    -3.1920     1.6767 C.3     
   5 C5            -2.4155    -2.9878     0.5187 C.2     
   6 N6            -0.1806    -3.6790     1.1762 N.3     
   7 O7            -1.9759    -2.8353    -0.6013 O.2     
   8 C8            -0.4171    -2.0957     3.6581 C.3     
   9 C9            -0.1076    -0.7519     4.3210 C.3     
  10 C10           -1.1835    -2.9842     4.6400 C.3     
  11 C11           -4.9314    -4.1192    -1.0802 C.3     
  12 C12           -4.6632    -2.7762    -0.3980 C.3     
  13 C13           -5.9615    -2.2009     0.1064 C.2     
  14 N14           -3.7469    -2.9747     0.7277 N.am    
  15 O15           -6.1070    -1.9786     1.2898 O.2     
  16 S16           -3.3686    -4.8118    -1.6874 S.3     
  17 C17           -8.1009     0.1475    -0.1650 C.3     
  18 C18           -8.2229    -1.3742    -0.2670 C.3     
  19 C19           -9.3334    -1.7261    -1.2230 C.2     
  20 N20           -6.9608    -1.9335    -0.7574 N.am    
  21 O21           -9.0941    -2.3798    -2.2162 O.2     
  22 C22           -7.0597     0.5056     0.8973 C.3     
  23 C23           -6.9395     2.0045     0.9978 C.2     
  24 O24           -7.6197     2.7162     0.2895 O.2     
  25 N25           -6.0762     2.5540     1.8747 N.am    
  26 C26          -11.6720    -1.6566    -1.9037 C.3     
  27 C27          -12.7789    -0.6410    -1.7837 C.2     
  28 N28          -10.5924    -1.3145    -0.9744 N.am    
  29 O29          -12.6761     0.2781    -0.9991 O.2     
  30 C30          -10.2759    -4.4210    -0.7824 C.ar    
  31 C31           -9.2921    -5.3672    -1.0008 C.ar    
  32 C32           -9.1751    -5.9695    -2.2395 C.ar    
  33 C33          -10.0423    -5.6259    -3.2598 C.ar    
  34 C34          -11.0258    -4.6794    -3.0416 C.ar    
  35 C35          -11.1428    -4.0771    -1.8028 C.ar    
  36 C36          -12.2157    -3.0460    -1.5646 C.3     
  37 C37          -14.6447     1.4376    -3.3213 C.3     
  38 C38          -14.9591     0.2332    -2.4316 C.3     
  39 C39          -16.2605    -0.3882    -2.8688 C.2     
  40 N40          -13.8830    -0.7541    -2.5483 N.am    
  41 O41          -16.2867    -1.5422    -3.2411 O.2     
  42 C42          -13.4093     2.1319    -2.8087 C.ar    
  43 C43          -12.1629     1.7554    -3.2738 C.ar    
  44 C44          -11.0289     2.3903    -2.8055 C.ar    
  45 C45          -11.1414     3.4065    -1.8678 C.ar    
  46 C46          -12.3933     3.7825    -1.4027 C.ar    
  47 C47          -13.5246     3.1483    -1.8784 C.ar    
  48 O48          -10.0273     4.0323    -1.4052 O.3     
  49 C49          -19.2894    -1.0137    -2.0937 C.3     
  50 C50          -18.6606    -0.2657    -3.2709 C.3     
  51 C51          -19.6008     0.8149    -3.7394 C.2     
  52 N52          -17.3954     0.3384    -2.8460 N.am    
  53 O53          -19.4100     1.9676    -3.4143 O.2     
  54 C54          -18.3749    -2.1666    -1.6750 C.3     
  55 C55          -19.4702    -0.0529    -0.9169 C.3     
  56 C56          -20.8863     2.0890    -6.3643 C.3     
  57 C57          -21.5027     1.5613    -5.0672 C.3     
  58 C58          -22.8758     1.0095    -5.3517 C.2     
  59 N59          -20.6538     0.5002    -4.5196 N.am    
  60 O60          -23.0399    -0.1883    -5.4491 O.2     
  61 C61          -19.5174     2.7036    -6.0654 C.3     
  62 C62          -20.7221     0.9363    -7.3569 C.3     
  63 C63          -26.2987     2.3412    -5.2032 C.3     
  64 C64          -25.2726     1.3081    -5.6731 C.3     
  65 C65          -25.5041     0.9966    -7.1293 C.2     
  66 N66          -23.9217     1.8469    -5.4978 N.am    
  67 O67          -24.7586     1.4425    -7.9681 O.2     
  68 C68          -26.1467     2.5615    -3.7202 C.2     
  69 N69          -26.9506     3.4356    -3.0829 N.am    
  70 O70          -25.3010     1.9523    -3.1001 O.2     
  71 H71            0.7462    -5.4658     0.5744 H       
  72 H72           -0.3047    -5.6058     2.0042 H       
  73 H73           -1.0234    -5.4332     0.3849 H       
  74 H74          -27.5400     0.7537    -7.7215 H       
  75 H75          -26.4109    -0.4145    -8.4487 H       
  76 H76          -26.8875    -0.5816    -6.7419 H       
  77 H77           -0.7617    -1.1598     1.7486 H       
  78 H78           -2.2371    -1.4566     2.6991 H       
  79 H79           -1.8956    -3.9244     2.3645 H       
  80 H80            0.5745    -3.3831     1.7765 H       
  81 H81            0.5153    -2.5853     3.3767 H       
  82 H82            0.4270    -0.9223     5.2554 H       
  83 H83            0.5099    -0.1511     3.6533 H       
  84 H84           -1.0395    -0.2250     4.5263 H       
  85 H85           -1.4039    -3.9416     4.1677 H       
  86 H86           -0.5767    -3.1494     5.5303 H       
  87 H87           -2.1158    -2.4947     4.9214 H       
  88 H88           -5.3797    -4.8075    -0.3637 H       
  89 H89           -5.6131    -3.9715    -1.9177 H       
  90 H90           -4.2148    -2.0879    -1.1144 H       
  91 H91           -4.0984    -3.0967     1.6235 H       
  92 H92           -3.7508    -5.9705    -2.2533 H       
  93 H93           -7.7912     0.5526    -1.1284 H       
  94 H94           -9.0655     0.5715     0.1143 H       
  95 H95           -8.4456    -1.7876     0.7166 H       
  96 H96           -6.8444    -2.1113    -1.7038 H       
  97 H97           -7.3693     0.1006     1.8607 H       
  98 H98           -6.0951     0.0817     0.6180 H       
  99 H99           -5.5321     1.9848     2.4412 H       
 100 H100          -5.9988     3.5188     1.9394 H       
 101 H101         -11.2873    -1.6560    -2.9236 H       
 102 H102         -10.7838    -0.7917    -0.1800 H       
 103 H103         -10.3701    -3.9537     0.1867 H       
 104 H104          -8.6146    -5.6356    -0.2037 H       
 105 H105          -8.4060    -6.7082    -2.4104 H       
 106 H106          -9.9504    -6.0960    -4.2278 H       
 107 H107         -11.7031    -4.4108    -3.8388 H       
 108 H108         -12.5187    -3.0721    -0.5179 H       
 109 H109         -13.0760    -3.2639    -2.1975 H       
 110 H110         -14.4739     1.0996    -4.3434 H       
 111 H111         -15.4852     2.1315    -3.3037 H       
 112 H112         -15.0422     0.5591    -1.3948 H       
 113 H113         -13.9652    -1.4892    -3.1758 H       
 114 H114         -12.0757     0.9640    -4.0035 H       
 115 H115         -10.0554     2.0956    -3.1688 H       
 116 H116         -12.4835     4.5733    -0.6728 H       
 117 H117         -14.4997     3.4435    -1.5199 H       
 118 H118          -9.7681     4.8072    -1.9224 H       
 119 H119         -20.2602    -1.4099    -2.3917 H       
 120 H120         -18.4739    -0.9637    -4.0870 H       
 121 H121         -17.3745     1.2613    -2.5482 H       
 122 H122         -18.8228    -2.6996    -0.8363 H       
 123 H123         -18.2461    -2.8512    -2.5134 H       
 124 H124         -17.4041    -1.7705    -1.3769 H       
 125 H125         -20.1925     0.7182    -1.1850 H       
 126 H126         -19.8328    -0.6047    -0.0496 H       
 127 H127         -18.5140     0.4124    -0.6776 H       
 128 H128         -21.5395     2.8484    -6.7943 H       
 129 H129         -21.5801     2.3738    -4.3448 H       
 130 H130         -20.8496    -0.4287    -4.7185 H       
 131 H131         -19.1186     3.1603    -6.9712 H       
 132 H132         -19.6216     3.4634    -5.2909 H       
 133 H133         -18.8369     1.9248    -5.7212 H       
 134 H134         -20.0690     0.1769    -6.9269 H       
 135 H135         -21.6973     0.4985    -7.5698 H       
 136 H136         -20.2830     1.3123    -8.2810 H       
 137 H137         -26.1343     3.2817    -5.7290 H       
 138 H138         -27.3040     1.9773    -5.4154 H       
 139 H139         -25.3794     0.3965    -5.0851 H       
 140 H140         -23.7798     2.8064    -5.4869 H       
 141 H141         -27.6270     3.9229    -3.5788 H       
 142 H142         -26.8528     3.5775    -2.1283 H       
@<TRIPOS>BOND
   1    1    6 1
   2    1   71 1
   3    1   72 1
   4    1   73 1
   5    2   65 1
   6    2   74 1
   7    2   75 1
   8    2   76 1
   9    3    8 1
  10    3    4 1
  11    3   77 1
  12    3   78 1
  13    4    6 1
  14    4    5 1
  15    4   79 1
  16    5    7 2
  17    5   14 am
  18    6   80 1
  19    8    9 1
  20    8   10 1
  21    8   81 1
  22    9   82 1
  23    9   83 1
  24    9   84 1
  25   10   85 1
  26   10   86 1
  27   10   87 1
  28   11   16 1
  29   11   12 1
  30   11   88 1
  31   11   89 1
  32   12   13 1
  33   12   14 1
  34   12   90 1
  35   13   15 2
  36   13   20 am
  37   14   91 1
  38   16   92 1
  39   17   22 1
  40   17   18 1
  41   17   93 1
  42   17   94 1
  43   18   20 1
  44   18   19 1
  45   18   95 1
  46   19   21 2
  47   19   28 am
  48   20   96 1
  49   22   23 1
  50   22   97 1
  51   22   98 1
  52   23   24 2
  53   23   25 am
  54   25   99 1
  55   25  100 1
  56   26   27 1
  57   26   28 1
  58   26   36 1
  59   26  101 1
  60   27   29 2
  61   27   40 am
  62   28  102 1
  63   30   31 ar
  64   30   35 ar
  65   30  103 1
  66   31   32 ar
  67   31  104 1
  68   32   33 ar
  69   32  105 1
  70   33   34 ar
  71   33  106 1
  72   34   35 ar
  73   34  107 1
  74   35   36 1
  75   36  108 1
  76   36  109 1
  77   37   42 1
  78   37   38 1
  79   37  110 1
  80   37  111 1
  81   38   39 1
  82   38   40 1
  83   38  112 1
  84   39   41 2
  85   39   52 am
  86   40  113 1
  87   42   43 ar
  88   42   47 ar
  89   43   44 ar
  90   43  114 1
  91   44   45 ar
  92   44  115 1
  93   45   46 ar
  94   45   48 1
  95   46   47 ar
  96   46  116 1
  97   47  117 1
  98   48  118 1
  99   49   54 1
 100   49   55 1
 101   49   50 1
 102   49  119 1
 103   50   52 1
 104   50   51 1
 105   50  120 1
 106   51   53 2
 107   51   59 am
 108   52  121 1
 109   54  122 1
 110   54  123 1
 111   54  124 1
 112   55  125 1
 113   55  126 1
 114   55  127 1
 115   56   61 1
 116   56   62 1
 117   56   57 1
 118   56  128 1
 119   57   59 1
 120   57   58 1
 121   57  129 1
 122   58   60 2
 123   58   66 am
 124   59  130 1
 125   61  131 1
 126   61  132 1
 127   61  133 1
 128   62  134 1
 129   62  135 1
 130   62  136 1
 131   63   68 1
 132   63   64 1
 133   63  137 1
 134   63  138 1
 135   64   66 1
 136   64   65 1
 137   64  139 1
 138   65   67 2
 139   66  140 1
 140   68   69 am
 141   68   70 2
 142   69  141 1
 143   69  142 1

#	End of record

