#	Name: ASD02390012
#	Creating user name:	WinNT
#	Creation time:	15. 06. 2019 20:20

#	Modifying user name:	WinNT
#	Modification time:	15. 06. 2019 20:20

#	Program:	/corina/corina34_cracker 3.40 0067  02.08.2006

@<TRIPOS>MOLECULE
ASD02390012
  36   38    0    0    0
SMALL
NO_CHARGES


@<TRIPOS>ATOM
   1 C1            -0.0165     1.3641     0.0095 C.2     
   2 C2             0.0021    -0.0041     0.0020 C.2     
   3 C3            -1.3234    -0.5969     0.0113 C.2     
   4 C4            -2.2937     0.3238     0.0257 C.2     
   5 S5            -1.6169     1.9440     0.0353 S.3     
   6 C6             1.2359    -0.7920    -0.0138 C.2     
   7 O7             1.7935    -1.1482    -1.1892 O.3     
   8 O8             1.7581    -1.1253     1.0330 O.2     
   9 N9             1.1117     2.1668     0.0031 N.am    
  10 C10            0.9842     3.5085     0.0115 C.2     
  11 O11           -0.1226     4.0145     0.0248 O.2     
  12 C12            2.1780     4.3578     0.0047 C.2     
  13 C13            2.1788     5.7247     0.0120 C.2     
  14 C14            3.4417     6.2676     0.0033 C.2     
  15 C15            4.4418     5.3785    -0.0106 C.2     
  16 S16            3.8394     3.7822    -0.0066 S.3     
  17 C17            3.0162    -1.9291    -1.1289 C.3     
  18 C18           -1.5869    -2.0943     0.0050 C.3     
  19 C19           -3.0319    -2.3422     0.4435 C.3     
  20 C20           -3.9678    -1.4559    -0.3837 C.3     
  21 C21           -3.7762     0.0033     0.0387 C.3     
  22 H22            1.9938     1.7635    -0.0075 H       
  23 H23            1.2771     6.3190     0.0235 H       
  24 H24            3.6141     7.3337     0.0071 H       
  25 H25            5.4904     5.6369    -0.0191 H       
  26 H26            3.3581    -2.1475    -2.1406 H       
  27 H27            3.7832    -1.3628    -0.6006 H       
  28 H28            2.8252    -2.8630    -0.6004 H       
  29 H29           -1.4378    -2.4873    -1.0007 H       
  30 H30           -0.9051    -2.5882     0.6973 H       
  31 H31           -3.2865    -3.3899     0.2834 H       
  32 H32           -3.1388    -2.0980     1.5004 H       
  33 H33           -3.7308    -1.5634    -1.4422 H       
  34 H34           -5.0016    -1.7535    -0.2082 H       
  35 H35           -4.1728     0.1480     1.0436 H       
  36 H36           -4.2976     0.6576    -0.6600 H       
@<TRIPOS>BOND
   1    1    2 2
   2    1    9 1
   3    1    5 1
   4    2    3 1
   5    2    6 1
   6    3    4 2
   7    3   18 1
   8    4    5 1
   9    4   21 1
  10    6    7 1
  11    6    8 2
  12    7   17 1
  13    9   10 am
  14    9   22 1
  15   10   11 2
  16   10   12 1
  17   12   13 2
  18   12   16 1
  19   13   14 1
  20   13   23 1
  21   14   15 2
  22   14   24 1
  23   15   16 1
  24   15   25 1
  25   17   26 1
  26   17   27 1
  27   17   28 1
  28   18   19 1
  29   18   29 1
  30   18   30 1
  31   19   20 1
  32   19   31 1
  33   19   32 1
  34   20   21 1
  35   20   33 1
  36   20   34 1
  37   21   35 1
  38   21   36 1

#	End of record

