#	Name: ASD05730122
#	Creating user name:	WinNT
#	Creation time:	15. 06. 2019 21:02

#	Modifying user name:	WinNT
#	Modification time:	15. 06. 2019 21:02

#	Program:	/corina/corina34_cracker 3.40 0067  02.08.2006

@<TRIPOS>MOLECULE
ASD05730122
  78   84    0    0    0
SMALL
NO_CHARGES


@<TRIPOS>ATOM
   1 O1             0.2990     1.6862     0.8536 O.3     
   2 C2             0.2855     0.3323     0.7267 C.ar    
   3 C3            -0.6975    -0.2828    -0.0346 C.ar    
   4 C4            -0.7122    -1.6576    -0.1636 C.ar    
   5 C5             0.2576    -2.4243     0.4688 C.ar    
   6 C6             1.2416    -1.8077     1.2305 C.ar    
   7 C7             1.2580    -0.4324     1.3541 C.ar    
   8 N8             0.2431    -3.8184     0.3390 N.pl3   
   9 C9             1.4306    -4.5122     0.2050 C.ar    
  10 N10            1.3983    -5.8360     0.1961 N.ar    
  11 C11            2.5189    -6.5381     0.0688 C.ar    
  12 C12            3.7421    -5.8444    -0.0564 C.ar    
  13 C13            3.7232    -4.4416    -0.0412 C.ar    
  14 N14            2.5620    -3.8266     0.0846 N.ar    
  15 N15            2.4920    -7.9100     0.0593 N.am    
  16 C16            3.6277    -8.6221    -0.0693 C.2     
  17 C17            4.9184    -7.9388    -0.2019 C.2     
  18 C18            4.9545    -6.5582    -0.1942 C.2     
  19 C19            1.2113    -8.6091     0.1912 C.3     
  20 O20            3.5828    -9.8392    -0.0750 O.2     
  21 C21            6.1645    -8.7175    -0.3425 C.2     
  22 C22           -0.6637     2.4187     0.0930 C.3     
  23 C23           -2.0081     2.4722     0.8421 C.3     
  24 C24            7.1734    -8.7418     0.5531 C.2     
  25 C25            8.2374    -9.5464     0.2003 C.2     
  26 C26            8.1068   -10.1767    -0.9704 C.2     
  27 S27            6.5609    -9.7635    -1.6999 S.3     
  28 S28            9.6637    -9.7287     1.2187 S.o     
  29 O29            9.6584    -8.5368     1.9924 O.2     
  30 C30            9.2325   -11.1380     2.2762 C.3     
  31 C31           10.2148   -11.5140     3.3874 C.3     
  32 C32            8.8841   -10.8447     3.7369 C.3     
  33 C33            0.9732    -9.4751    -1.0479 C.3     
  34 C34           -0.3824   -10.1775    -0.9222 C.3     
  35 N35           -0.4158   -10.9175     0.3467 N.am    
  36 C36           -0.1118   -10.1990     1.5917 C.3     
  37 C37            1.2408    -9.4963     1.4378 C.3     
  38 S38           -0.7894   -12.5306     0.3731 S.o2    
  39 C39            0.8094   -13.3685     0.1935 C.3     
  40 O40           -1.3219   -12.7457     1.6729 O.2     
  41 O41           -1.5871   -12.7246    -0.7867 O.2     
  42 N42           -2.2890     3.8959     1.1282 N.3     
  43 C43           -1.5569     4.6691     0.0926 C.3     
  44 C44           -0.2234     3.8935    -0.0521 C.3     
  45 H45           -1.4516     0.3137    -0.5264 H       
  46 H46           -1.4780    -2.1364    -0.7558 H       
  47 H47            1.9962    -2.4033     1.7226 H       
  48 H48            2.0233     0.0473     1.9462 H       
  49 H49           -0.6005    -4.2971     0.3430 H       
  50 H50            4.6390    -3.8768    -0.1345 H       
  51 H51            5.8931    -6.0328    -0.2904 H       
  52 H52            0.4071    -7.8792     0.2841 H       
  53 H53           -0.7955     1.9633    -0.8885 H       
  54 H54           -2.7983     2.0561     0.2172 H       
  55 H55           -1.9358     1.9133     1.7751 H       
  56 H56            7.1503    -8.1761     1.4728 H       
  57 H57            8.8386   -10.8436    -1.4018 H       
  58 H58            8.6957   -11.9487     1.7835 H       
  59 H59           10.3239   -12.5720     3.6259 H       
  60 H60           11.1201   -10.9145     3.4830 H       
  61 H61            8.9139    -9.8048     4.0623 H       
  62 H62            8.1178   -11.4623     4.2053 H       
  63 H63            0.9756    -8.8456    -1.9377 H       
  64 H64            1.7636   -10.2214    -1.1275 H       
  65 H65           -1.1808    -9.4356    -0.9337 H       
  66 H66           -0.5131   -10.8709    -1.7531 H       
  67 H67           -0.8882    -9.4588     1.7852 H       
  68 H68           -0.0640   -10.9064     2.4195 H       
  69 H69            2.0287   -10.2424     1.3348 H       
  70 H70            1.4336    -8.8819     2.3172 H       
  71 H71            1.4615   -13.0883     1.0208 H       
  72 H72            0.6568   -14.4478     0.2007 H       
  73 H73            1.2706   -13.0731    -0.7488 H       
  74 H74           -3.2794     4.0843     1.0873 H       
  75 H75           -2.1066     4.6681    -0.8486 H       
  76 H76           -1.3740     5.6888     0.4315 H       
  77 H77            0.4710     4.1686     0.7417 H       
  78 H78            0.2204     4.0689    -1.0321 H       
@<TRIPOS>BOND
   1    1    2 1
   2    1   22 1
   3    2    3 ar
   4    2    7 ar
   5    3    4 ar
   6    3   45 1
   7    4    5 ar
   8    4   46 1
   9    5    6 ar
  10    5    8 1
  11    6    7 ar
  12    6   47 1
  13    7   48 1
  14    8    9 1
  15    8   49 1
  16    9   10 ar
  17    9   14 ar
  18   10   11 ar
  19   11   12 ar
  20   11   15 1
  21   12   13 ar
  22   12   18 1
  23   13   14 ar
  24   13   50 1
  25   15   16 am
  26   15   19 1
  27   16   17 1
  28   16   20 2
  29   17   18 2
  30   17   21 1
  31   18   51 1
  32   19   33 1
  33   19   37 1
  34   19   52 1
  35   21   24 2
  36   21   27 1
  37   22   23 1
  38   22   44 1
  39   22   53 1
  40   23   42 1
  41   23   54 1
  42   23   55 1
  43   24   25 1
  44   24   56 1
  45   25   26 2
  46   25   28 1
  47   26   27 1
  48   26   57 1
  49   28   29 2
  50   28   30 1
  51   30   31 1
  52   30   32 1
  53   30   58 1
  54   31   32 1
  55   31   59 1
  56   31   60 1
  57   32   61 1
  58   32   62 1
  59   33   34 1
  60   33   63 1
  61   33   64 1
  62   34   35 1
  63   34   65 1
  64   34   66 1
  65   35   36 1
  66   35   38 am
  67   36   37 1
  68   36   67 1
  69   36   68 1
  70   37   69 1
  71   37   70 1
  72   38   39 1
  73   38   40 2
  74   38   41 2
  75   39   71 1
  76   39   72 1
  77   39   73 1
  78   42   43 1
  79   42   74 1
  80   43   44 1
  81   43   75 1
  82   43   76 1
  83   44   77 1
  84   44   78 1

#	End of record

