#	Name: ASD01040005
#	Creating user name:	WinNT
#	Creation time:	15. 06. 2019 18:58

#	Modifying user name:	WinNT
#	Modification time:	15. 06. 2019 18:58

#	Program:	/corina/corina34_cracker 3.40 0067  02.08.2006

@<TRIPOS>MOLECULE
ASD01040005
  61   65    0    0    0
SMALL
NO_CHARGES


@<TRIPOS>ATOM
   1 O1            -3.6934    -1.4586    -2.9574 O.3     
   2 C2            -2.7946    -2.2022    -2.2594 C.ar    
   3 C3            -3.2272    -3.0234    -1.2227 C.ar    
   4 C4            -2.3246    -3.7763    -0.5152 C.ar    
   5 C5            -0.9513    -3.7276    -0.8279 C.ar    
   6 C6            -0.5213    -2.9039    -1.8669 C.ar    
   7 C7            -1.4543    -2.1466    -2.5828 C.ar    
   8 S8             1.2232    -3.0165    -2.0610 S.3     
   9 C9             1.3774    -4.1678    -0.7495 C.2     
  10 C10            0.1572    -4.4462    -0.1979 C.2     
  11 C11           -0.0230    -5.3751     0.9177 C.2     
  12 O12            0.0512    -4.9713     2.0645 O.2     
  13 C13           -0.2950    -6.8026     0.6535 C.ar    
  14 C14           -0.3585    -7.7114     1.7131 C.ar    
  15 C15           -0.6128    -9.0414     1.4627 C.ar    
  16 C16           -0.8057    -9.4804     0.1581 C.ar    
  17 C17           -0.7429    -8.5797    -0.8987 C.ar    
  18 C18           -0.4952    -7.2469    -0.6561 C.ar    
  19 O19           -1.0557   -10.7922    -0.0847 O.3     
  20 C20           -1.1350   -11.1951    -1.4534 C.3     
  21 C21           -1.4969   -12.6798    -1.5279 C.3     
  22 N22           -2.8253   -12.8903    -0.9370 N.3     
  23 C23           -3.2517   -14.2877    -1.0851 C.3     
  24 C24           -4.5677   -14.5031    -0.3343 C.3     
  25 C25           -5.6336   -13.5618    -0.9019 C.3     
  26 C26           -5.1440   -12.1161    -0.7796 C.3     
  27 C27           -3.8113   -11.9699    -1.5175 C.3     
  28 C28            2.6518    -4.7578    -0.3009 C.ar    
  29 C29            3.5471    -5.2865    -1.2354 C.ar    
  30 C30            4.7368    -5.8364    -0.8116 C.ar    
  31 C31            5.0476    -5.8661     0.5425 C.ar    
  32 C32            4.1605    -5.3422     1.4750 C.ar    
  33 C33            2.9711    -4.7851     1.0600 C.ar    
  34 O34            6.2216    -6.4091     0.9557 O.3     
  35 H35           -3.8469    -0.5783    -2.5880 H       
  36 H36           -4.2773    -3.0680    -0.9740 H       
  37 H37           -2.6691    -4.4110     0.2879 H       
  38 H38           -1.1226    -1.5083    -3.3883 H       
  39 H39           -0.2081    -7.3712     2.7270 H       
  40 H40           -0.6621    -9.7444     2.2811 H       
  41 H41           -0.8929    -8.9247    -1.9110 H       
  42 H42           -0.4466    -6.5477    -1.4777 H       
  43 H43           -1.9009   -10.6086    -1.9610 H       
  44 H44           -0.1720   -11.0311    -1.9368 H       
  45 H45           -1.5080   -12.9992    -2.5700 H       
  46 H46           -0.7579   -13.2619    -0.9773 H       
  47 H47           -3.3953   -14.5135    -2.1418 H       
  48 H48           -2.4868   -14.9463    -0.6738 H       
  49 H49           -4.8919   -15.5364    -0.4574 H       
  50 H50           -4.4213   -14.2907     0.7248 H       
  51 H51           -5.8081   -13.7996    -1.9512 H       
  52 H52           -6.5607   -13.6810    -0.3413 H       
  53 H53           -5.8800   -11.4441    -1.2208 H       
  54 H54           -5.0067   -11.8662     0.2725 H       
  55 H55           -3.4528   -10.9451    -1.4203 H       
  56 H56           -3.9522   -12.2066    -2.5721 H       
  57 H57            3.3062    -5.2642    -2.2879 H       
  58 H58            5.4289    -6.2454    -1.5328 H       
  59 H59            4.4060    -5.3680     2.5264 H       
  60 H60            2.2823    -4.3781     1.7854 H       
  61 H61            6.9324    -5.7646     1.0759 H       
@<TRIPOS>BOND
   1    1    2 1
   2    1   35 1
   3    2    3 ar
   4    2    7 ar
   5    3    4 ar
   6    3   36 1
   7    4    5 ar
   8    4   37 1
   9    5    6 ar
  10    5   10 1
  11    6    7 ar
  12    6    8 1
  13    7   38 1
  14    8    9 1
  15    9   10 2
  16    9   28 1
  17   10   11 1
  18   11   12 2
  19   11   13 1
  20   13   14 ar
  21   13   18 ar
  22   14   15 ar
  23   14   39 1
  24   15   16 ar
  25   15   40 1
  26   16   17 ar
  27   16   19 1
  28   17   18 ar
  29   17   41 1
  30   18   42 1
  31   19   20 1
  32   20   21 1
  33   20   43 1
  34   20   44 1
  35   21   22 1
  36   21   45 1
  37   21   46 1
  38   22   23 1
  39   22   27 1
  40   23   24 1
  41   23   47 1
  42   23   48 1
  43   24   25 1
  44   24   49 1
  45   24   50 1
  46   25   26 1
  47   25   51 1
  48   25   52 1
  49   26   27 1
  50   26   53 1
  51   26   54 1
  52   27   55 1
  53   27   56 1
  54   28   29 ar
  55   28   33 ar
  56   29   30 ar
  57   29   57 1
  58   30   31 ar
  59   30   58 1
  60   31   32 ar
  61   31   34 1
  62   32   33 ar
  63   32   59 1
  64   33   60 1
  65   34   61 1

#	End of record

