#	Name: ASD08178290
#	Creating user name:	WinNT
#	Creation time:	15. 06. 2019 21:18

#	Modifying user name:	WinNT
#	Modification time:	15. 06. 2019 21:18

#	Program:	/corina/corina34_cracker 3.40 0067  02.08.2006

@<TRIPOS>MOLECULE
ASD08178290
  84   87    0    0    0
SMALL
NO_CHARGES


@<TRIPOS>ATOM
   1 N1            -0.0168     1.3902     0.0097 N.am    
   2 C2            -0.2173     0.0103     0.0231 C.ar    
   3 C3             0.8683    -0.8557    -0.0926 C.ar    
   4 N4            -1.4399    -0.4832     0.1513 N.ar    
   5 N5            -1.6667    -1.7463     0.1686 N.ar    
   6 C6            -0.7002    -2.6368     0.0602 C.ar    
   7 C7             0.6159    -2.2190    -0.0733 C.ar    
   8 C8            -1.0247    -4.1082     0.0874 C.3     
   9 C9            -1.8115    -4.4335     1.3586 C.3     
  10 C10           -2.1410    -5.9273     1.3862 C.3     
  11 C11           -2.9278    -6.2527     2.6574 C.3     
  12 C12           -3.2523    -7.7241     2.6845 C.2     
  13 N13           -2.5213    -8.6581     3.2049 N.2     
  14 N14           -2.9690    -9.8359     3.1257 N.2     
  15 C15           -4.1130   -10.0077     2.5350 C.2     
  16 S16           -4.6995    -8.4828     2.0200 S.3     
  17 N17           -4.7575   -11.2270     2.3553 N.am    
  18 C18           -4.1929   -12.3617     2.8139 C.2     
  19 C19           -4.8913   -13.6828     2.6192 C.3     
  20 O20           -3.1229   -12.3195     3.3832 O.2     
  21 C21           -4.0568   -14.7853     3.2184 C.ar    
  22 C22           -3.5981   -15.8166     2.4204 C.ar    
  23 C23           -2.8327   -16.8280     2.9701 C.ar    
  24 C24           -2.5254   -16.8076     4.3178 C.ar    
  25 C25           -2.9833   -15.7758     5.1156 C.ar    
  26 C26           -3.7451   -14.7622     4.5650 C.ar    
  27 C27           -6.2566   -13.6444     3.3086 C.3     
  28 C28           -1.0750     2.2250     0.0167 C.2     
  29 C29           -0.8601     3.7130     0.1198 C.3     
  30 O30           -2.2000     1.7786    -0.0599 O.2     
  31 C31           -2.1935     4.4152     0.1067 C.ar    
  32 C32           -2.8564     4.6619     1.2941 C.ar    
  33 C33           -4.0797     5.3060     1.2820 C.ar    
  34 C34           -4.6395     5.7036     0.0825 C.ar    
  35 C35           -3.9759     5.4577    -1.1053 C.ar    
  36 C36           -2.7510     4.8176    -1.0928 C.ar    
  37 C37           -4.5865     5.8908    -2.4132 C.3     
  38 N38           -4.1443     7.2506    -2.7320 N.am    
  39 C39           -4.5671     7.8489    -3.8632 C.2     
  40 O40           -4.1607     9.0986    -4.1562 O.3     
  41 O41           -5.3150     7.2604    -4.6188 O.2     
  42 C42           -4.6558     9.6803    -5.3911 C.3     
  43 C43           -6.1838     9.7444    -5.3479 C.3     
  44 C44           -4.0904    11.0928    -5.5520 C.3     
  45 C45           -4.2148     8.8165    -6.5744 C.3     
  46 H46            0.8842     1.7494    -0.0006 H       
  47 H47            1.8745    -0.4770    -0.1944 H       
  48 H48            1.4199    -2.9345    -0.1636 H       
  49 H49           -1.6240    -4.3643    -0.7864 H       
  50 H50           -0.0997    -4.6845     0.0751 H       
  51 H51           -1.2123    -4.1774     2.2323 H       
  52 H52           -2.7366    -3.8571     1.3708 H       
  53 H53           -2.7402    -6.1835     0.5124 H       
  54 H54           -1.2159    -6.5037     1.3739 H       
  55 H55           -2.3286    -5.9966     3.5311 H       
  56 H56           -3.8529    -5.6763     2.6696 H       
  57 H57           -5.6133   -11.2607     1.9000 H       
  58 H58           -5.0274   -13.8683     1.5537 H       
  59 H59           -3.8382   -15.8325     1.3676 H       
  60 H60           -2.4749   -17.6341     2.3468 H       
  61 H61           -1.9280   -17.5981     4.7474 H       
  62 H62           -2.7435   -15.7601     6.1685 H       
  63 H63           -4.1028   -13.9560     5.1883 H       
  64 H64           -6.1205   -13.4589     4.3741 H       
  65 H65           -6.8602   -12.8470     2.8752 H       
  66 H66           -6.7618   -14.6000     3.1678 H       
  67 H67           -0.3385     3.9413     1.0493 H       
  68 H68           -0.2620     4.0532    -0.7255 H       
  69 H69           -2.4189     4.3512     2.2314 H       
  70 H70           -4.5980     5.4981     2.2098 H       
  71 H71           -5.5954     6.2062     0.0730 H       
  72 H72           -2.2327     4.6255    -2.0206 H       
  73 H73           -4.2705     5.2111    -3.2045 H       
  74 H74           -5.6733     5.8721    -2.3307 H       
  75 H75           -3.5473     7.7204    -2.1288 H       
  76 H76           -6.4980    10.3597    -4.5049 H       
  77 H77           -6.5555    10.1811    -6.2749 H       
  78 H78           -6.5866     8.7380    -5.2333 H       
  79 H79           -3.0018    11.0471    -5.5828 H       
  80 H80           -4.4621    11.5295    -6.4790 H       
  81 H81           -4.4046    11.7082    -4.7090 H       
  82 H82           -4.6176     7.8102    -6.4598 H       
  83 H83           -4.5865     9.2532    -7.5014 H       
  84 H84           -3.1262     8.7708    -6.6052 H       
@<TRIPOS>BOND
   1    1    2 1
   2    1   28 am
   3    1   46 1
   4    2    3 ar
   5    2    4 ar
   6    3    7 ar
   7    3   47 1
   8    4    5 ar
   9    5    6 ar
  10    6    7 ar
  11    6    8 1
  12    7   48 1
  13    8    9 1
  14    8   49 1
  15    8   50 1
  16    9   10 1
  17    9   51 1
  18    9   52 1
  19   10   11 1
  20   10   53 1
  21   10   54 1
  22   11   12 1
  23   11   55 1
  24   11   56 1
  25   12   13 2
  26   12   16 1
  27   13   14 1
  28   14   15 2
  29   15   16 1
  30   15   17 1
  31   17   18 am
  32   17   57 1
  33   18   19 1
  34   18   20 2
  35   19   21 1
  36   19   27 1
  37   19   58 1
  38   21   22 ar
  39   21   26 ar
  40   22   23 ar
  41   22   59 1
  42   23   24 ar
  43   23   60 1
  44   24   25 ar
  45   24   61 1
  46   25   26 ar
  47   25   62 1
  48   26   63 1
  49   27   64 1
  50   27   65 1
  51   27   66 1
  52   28   29 1
  53   28   30 2
  54   29   31 1
  55   29   67 1
  56   29   68 1
  57   31   32 ar
  58   31   36 ar
  59   32   33 ar
  60   32   69 1
  61   33   34 ar
  62   33   70 1
  63   34   35 ar
  64   34   71 1
  65   35   36 ar
  66   35   37 1
  67   36   72 1
  68   37   38 1
  69   37   73 1
  70   37   74 1
  71   38   39 am
  72   38   75 1
  73   39   40 1
  74   39   41 2
  75   40   42 1
  76   42   43 1
  77   42   44 1
  78   42   45 1
  79   43   76 1
  80   43   77 1
  81   43   78 1
  82   44   79 1
  83   44   80 1
  84   44   81 1
  85   45   82 1
  86   45   83 1
  87   45   84 1

#	End of record

