#	Name: ASD01884353
#	Creating user name:	WinNT
#	Creation time:	15. 06. 2019 19:48

#	Modifying user name:	WinNT
#	Modification time:	15. 06. 2019 19:48

#	Program:	/corina/corina34_cracker 3.40 0067  02.08.2006

@<TRIPOS>MOLECULE
ASD01884353
  57   59    0    0    0
SMALL
NO_CHARGES


@<TRIPOS>ATOM
   1 C1            -0.1556     1.0123    -0.3268 C.2     
   2 C2            -0.0652    -0.3755    -0.2554 C.2     
   3 C3            -1.2394    -1.1294    -0.2376 C.2     
   4 C4            -2.4464    -0.5116    -0.2899 C.2     
   5 N5            -2.5422     0.8384    -0.3595 N.am    
   6 C6            -1.4408     1.6130    -0.3736 C.2     
   7 O7            -1.5469     2.8257    -0.4367 O.2     
   8 C8            -3.8651     1.4653    -0.4148 C.3     
   9 C9             1.0271     1.8194    -0.3466 C.1     
  10 N10            1.9653     2.4598    -0.3623 N.1     
  11 N11            1.6394    -1.3112     1.2021 N.3     
  12 C12            2.8233    -2.1762     1.2908 C.3     
  13 C13            3.2723    -2.2736     2.7527 C.3     
  14 N14            2.1250    -2.7043     3.5660 N.am    
  15 C15            0.8590    -1.9685     3.4283 C.3     
  16 C16            0.5051    -1.8831     1.9398 C.3     
  17 C17            2.2309    -3.7460     4.4147 C.2     
  18 C18           -4.3516     1.7560     1.0064 C.3     
  19 C19            1.2799    -1.0528    -0.1986 C.3     
  20 C20           -5.7332     2.4107     0.9486 C.3     
  21 C21           -6.2735     2.5877     2.3691 C.3     
  22 C22           -5.6217     3.7781     0.2714 C.3     
  23 O23            3.2506    -4.4069     4.4414 O.2     
  24 C24            1.1067    -4.0847     5.3132 C.ar    
  25 C25            0.7817    -5.4201     5.5566 C.ar    
  26 C26           -0.2682    -5.7293     6.3964 C.ar    
  27 C27           -0.9987    -4.7191     6.9965 C.ar    
  28 C28           -0.6818    -3.3933     6.7595 C.ar    
  29 C29            0.3694    -3.0705     5.9264 C.ar    
  30 H30           -1.1874    -2.2067    -0.1825 H       
  31 H31           -3.3474    -1.1069    -0.2762 H       
  32 H32           -3.8020     2.3981    -0.9752 H       
  33 H33           -4.5660     0.7918    -0.9081 H       
  34 H34            2.5759    -3.1706     0.9192 H       
  35 H35            3.6287    -1.7531     0.6904 H       
  36 H36            4.0777    -3.0028     2.8406 H       
  37 H37            3.6184    -1.2984     3.0952 H       
  38 H38            0.0689    -2.4959     3.9628 H       
  39 H39            0.9731    -0.9640     3.8357 H       
  40 H40           -0.3709    -1.2474     1.8101 H       
  41 H41            0.2899    -2.8816     1.5592 H       
  42 H42           -4.4147     0.8232     1.5667 H       
  43 H43           -3.6507     2.4294     1.4997 H       
  44 H44            1.2347    -1.9966    -0.7422 H       
  45 H45            2.0312    -0.4072    -0.6534 H       
  46 H46           -6.4120     1.7769     0.3780 H       
  47 H47           -5.5946     3.2214     2.9397 H       
  48 H48           -7.2578     3.0541     2.3279 H       
  49 H49           -6.3529     1.6135     2.8515 H       
  50 H50           -4.9428     4.4119     0.8420 H       
  51 H51           -5.2367     3.6520    -0.7406 H       
  52 H52           -6.6060     4.2445     0.2302 H       
  53 H53            1.3507    -6.2095     5.0881 H       
  54 H54           -0.5207    -6.7622     6.5855 H       
  55 H55           -1.8201    -4.9665     7.6526 H       
  56 H56           -1.2559    -2.6094     7.2311 H       
  57 H57            0.6160    -2.0352     5.7424 H       
@<TRIPOS>BOND
   1    1    2 2
   2    1    9 1
   3    1    6 1
   4    2    3 1
   5    2   19 1
   6    3    4 2
   7    3   30 1
   8    4    5 1
   9    4   31 1
  10    5    6 am
  11    5    8 1
  12    6    7 2
  13    8   18 1
  14    8   32 1
  15    8   33 1
  16    9   10 3
  17   11   12 1
  18   11   16 1
  19   11   19 1
  20   12   13 1
  21   12   34 1
  22   12   35 1
  23   13   14 1
  24   13   36 1
  25   13   37 1
  26   14   15 1
  27   14   17 am
  28   15   16 1
  29   15   38 1
  30   15   39 1
  31   16   40 1
  32   16   41 1
  33   17   23 2
  34   17   24 1
  35   18   20 1
  36   18   42 1
  37   18   43 1
  38   19   44 1
  39   19   45 1
  40   20   21 1
  41   20   22 1
  42   20   46 1
  43   21   47 1
  44   21   48 1
  45   21   49 1
  46   22   50 1
  47   22   51 1
  48   22   52 1
  49   24   25 ar
  50   24   29 ar
  51   25   26 ar
  52   25   53 1
  53   26   27 ar
  54   26   54 1
  55   27   28 ar
  56   27   55 1
  57   28   29 ar
  58   28   56 1
  59   29   57 1

#	End of record

