#	Name: ASD03520009
#	Creating user name:	WinNT
#	Creation time:	15. 06. 2019 20:42

#	Modifying user name:	WinNT
#	Modification time:	15. 06. 2019 20:42

#	Program:	/corina/corina34_cracker 3.40 0067  02.08.2006

@<TRIPOS>MOLECULE
ASD03520009
  62   65    0    0    0
SMALL
NO_CHARGES


@<TRIPOS>ATOM
   1 C1             0.4934     1.1173     0.6471 C.3     
   2 C2             0.5425    -0.2623     1.2663 C.3     
   3 C3             0.9734    -1.3782     0.3026 C.3     
   4 C4             0.0851    -1.2844    -0.9225 C.3     
   5 C5             0.2907     0.0810    -1.6195 C.3     
   6 C6            -0.2437     1.1564    -0.7002 C.3     
   7 C7             1.3688    -0.3258     2.5476 C.3     
   8 C8             1.1596    -1.6922     3.1552 C.2     
   9 C9             1.4773    -2.8849     2.2727 C.3     
  10 C10            0.7005    -2.7407     0.9639 C.3     
  11 C11            1.0246     0.7883     3.4748 C.2     
  12 C12            0.5838     0.6218     4.7116 C.2     
  13 C13            0.4091    -0.7348     5.2553 C.2     
  14 C14            0.7237    -1.8817     4.3874 C.2     
  15 C15            0.3944    -2.2596    -2.0673 C.3     
  16 C16           -0.4097    -1.6240    -3.2393 C.3     
  17 C17           -0.4859    -0.1077    -2.9317 C.3     
  18 C18            0.1718     0.6834    -4.0323 C.2     
  19 O19           -1.8647     0.3072    -2.7616 O.3     
  20 O20            1.1052     0.2143    -4.6382 O.2     
  21 C21           -0.3350     2.0601    -4.3770 C.3     
  22 Cl22           0.5549     2.6855    -5.8151 Cl      
  23 C23            1.7557     0.3233    -1.9747 C.3     
  24 S24            2.1118     1.9018     0.4946 S.3     
  25 C25            2.8631    -0.2350     2.2426 C.3     
  26 F26           -0.7939    -0.5732     1.6474 F       
  27 O27            0.0154    -0.9055     6.3937 O.2     
  28 O28            0.2718    -1.8440    -4.4752 O.3     
  29 C29           -2.6980     0.0894    -3.7911 C.2     
  30 O30           -2.2690    -0.3431    -4.8346 O.2     
  31 C31           -4.1687     0.3844    -3.6455 C.3     
  32 C32           -4.8877     0.0510    -4.9543 C.3     
  33 H33           -0.1103     1.7504     1.3368 H       
  34 H34            2.0158    -1.3087     0.0355 H       
  35 H35           -0.9640    -1.3988    -0.6244 H       
  36 H36           -1.3130     0.9962    -0.5275 H       
  37 H37           -0.1075     2.1390    -1.1610 H       
  38 H38            2.5450    -2.9401     2.0737 H       
  39 H39            1.1629    -3.8015     2.7816 H       
  40 H40           -0.3681    -2.8307     1.1597 H       
  41 H41            1.0041    -3.5304     0.2737 H       
  42 H42            1.1461     1.8016     3.1188 H       
  43 H43            0.3543     1.4825     5.3231 H       
  44 H44            0.5987    -2.8858     4.7678 H       
  45 H45            1.4537    -2.3043    -2.2891 H       
  46 H46            0.0048    -3.2528    -1.8365 H       
  47 H47           -1.4105    -2.0511    -3.2785 H       
  48 H48           -1.4001     2.0092    -4.6027 H       
  49 H49           -0.1743     2.7288    -3.5313 H       
  50 H50            2.0638    -0.3818    -2.7468 H       
  51 H51            1.8765     1.3418    -2.3437 H       
  52 H52            2.3728     0.1828    -1.0873 H       
  53 H53            1.8210     3.0883    -0.0681 H       
  54 H54            3.1091     0.7799     1.9300 H       
  55 H55            3.4325    -0.4878     3.1370 H       
  56 H56            3.1137    -0.9322     1.4431 H       
  57 H57            0.3773    -2.7772    -4.7055 H       
  58 H58           -4.5826    -0.2210    -2.8391 H       
  59 H59           -4.3062     1.4407    -3.4143 H       
  60 H60           -4.7501    -1.0052    -5.1855 H       
  61 H61           -5.9514     0.2644    -4.8489 H       
  62 H62           -4.4738     0.6564    -5.7607 H       
@<TRIPOS>BOND
   1    1    2 1
   2    1   24 1
   3    1    6 1
   4    1   33 1
   5    2    7 1
   6    2   26 1
   7    2    3 1
   8    3    4 1
   9    3   10 1
  10    3   34 1
  11    4    5 1
  12    4   15 1
  13    4   35 1
  14    5    6 1
  15    5   17 1
  16    5   23 1
  17    6   36 1
  18    6   37 1
  19    7    8 1
  20    7   11 1
  21    7   25 1
  22    8    9 1
  23    8   14 2
  24    9   10 1
  25    9   38 1
  26    9   39 1
  27   10   40 1
  28   10   41 1
  29   11   12 2
  30   11   42 1
  31   12   13 1
  32   12   43 1
  33   13   14 1
  34   13   27 2
  35   14   44 1
  36   15   16 1
  37   15   45 1
  38   15   46 1
  39   16   17 1
  40   16   28 1
  41   16   47 1
  42   17   18 1
  43   17   19 1
  44   18   20 2
  45   18   21 1
  46   19   29 1
  47   21   22 1
  48   21   48 1
  49   21   49 1
  50   23   50 1
  51   23   51 1
  52   23   52 1
  53   24   53 1
  54   25   54 1
  55   25   55 1
  56   25   56 1
  57   28   57 1
  58   29   30 2
  59   29   31 1
  60   31   32 1
  61   31   58 1
  62   31   59 1
  63   32   60 1
  64   32   61 1
  65   32   62 1

#	End of record

