#	Name: ASD01230411
#	Creating user name:	WinNT
#	Creation time:	15. 06. 2019 19:14

#	Modifying user name:	WinNT
#	Modification time:	15. 06. 2019 19:14

#	Program:	/corina/corina34_cracker 3.40 0067  02.08.2006

@<TRIPOS>MOLECULE
ASD01230411
  46   48    0    0    0
SMALL
NO_CHARGES


@<TRIPOS>ATOM
   1 O1             0.5874     0.6571    -0.4144 O.3     
   2 B2             0.0726    -0.6704    -0.5910 Du      
   3 O3             0.6249    -1.1172    -1.8374 O.3     
   4 C4             1.9799    -0.6205    -1.8355 C.3     
   5 C5             1.9545     0.5825    -0.8706 C.3     
   6 C6            -0.8850    -1.4611     0.3696 C.ar    
   7 C7            -1.2917    -2.7553     0.0416 C.ar    
   8 C8            -2.1315    -3.4464     0.8859 C.ar    
   9 C9            -2.5749    -2.8559     2.0642 C.ar    
  10 C10           -2.1713    -1.5666     2.3935 C.ar    
  11 C11           -1.3266    -0.8732     1.5560 C.ar    
  12 O12           -3.4031    -3.5388     2.8938 O.3     
  13 C13           -2.8423    -4.3278     3.8474 C.ar    
  14 C14           -1.4658    -4.3345     4.0227 C.ar    
  15 C15           -0.8982    -5.1375     4.9929 C.ar    
  16 C16           -1.7004    -5.9342     5.7889 C.ar    
  17 C17           -3.0723    -5.9297     5.6160 C.ar    
  18 C18           -3.6455    -5.1239     4.6515 C.ar    
  19 C19           -1.0785    -6.8093     6.8465 C.3     
  20 C20            2.3411     1.8658    -1.6084 C.3     
  21 C21            2.8977     0.3396     0.3093 C.3     
  22 C22            2.9408    -1.6950    -1.3225 C.3     
  23 C23            2.3842    -0.1688    -3.2402 C.3     
  24 H24           -0.9482    -3.2142    -0.8738 H       
  25 H25           -2.4465    -4.4479     0.6325 H       
  26 H26           -2.5172    -1.1104     3.3093 H       
  27 H27           -1.0097     0.1263     1.8146 H       
  28 H28           -0.8388    -3.7127     3.4010 H       
  29 H29            0.1731    -5.1434     5.1295 H       
  30 H30           -3.6966    -6.5535     6.2386 H       
  31 H31           -4.7175    -5.1169     4.5203 H       
  32 H32           -1.0116    -6.2556     7.7830 H       
  33 H33           -1.6944    -7.6966     6.9923 H       
  34 H34           -0.0795    -7.1085     6.5292 H       
  35 H35            2.2621     2.7139    -0.9282 H       
  36 H36            3.3666     1.7831    -1.9685 H       
  37 H37            1.6700     2.0149    -2.4543 H       
  38 H38            2.6184    -0.5856     0.8132 H       
  39 H39            3.9220     0.2601    -0.0548 H       
  40 H40            2.8247     1.1713     1.0100 H       
  41 H41            2.9038    -2.5610    -1.9834 H       
  42 H42            3.9550    -1.2960    -1.3029 H       
  43 H43            2.6482    -1.9935    -0.3159 H       
  44 H44            1.6998     0.6071    -3.5834 H       
  45 H45            3.3995     0.2269    -3.2165 H       
  46 H46            2.3412    -1.0185    -3.9216 H       
@<TRIPOS>BOND
   1    1    2 1
   2    1    5 1
   3    2    3 1
   4    2    6 1
   5    3    4 1
   6    4    5 1
   7    4   22 1
   8    4   23 1
   9    5   20 1
  10    5   21 1
  11    6    7 ar
  12    6   11 ar
  13    7    8 ar
  14    7   24 1
  15    8    9 ar
  16    8   25 1
  17    9   10 ar
  18    9   12 1
  19   10   11 ar
  20   10   26 1
  21   11   27 1
  22   12   13 1
  23   13   14 ar
  24   13   18 ar
  25   14   15 ar
  26   14   28 1
  27   15   16 ar
  28   15   29 1
  29   16   17 ar
  30   16   19 1
  31   17   18 ar
  32   17   30 1
  33   18   31 1
  34   19   32 1
  35   19   33 1
  36   19   34 1
  37   20   35 1
  38   20   36 1
  39   20   37 1
  40   21   38 1
  41   21   39 1
  42   21   40 1
  43   22   41 1
  44   22   42 1
  45   22   43 1
  46   23   44 1
  47   23   45 1
  48   23   46 1

#	End of record

