#	Name: ASD02320002
#	Creating user name:	WinNT
#	Creation time:	15. 06. 2019 20:20

#	Modifying user name:	WinNT
#	Modification time:	15. 06. 2019 20:20

#	Program:	/corina/corina34_cracker 3.40 0067  02.08.2006

@<TRIPOS>MOLECULE
ASD02320002
  22   21    0    0    0
SMALL
NO_CHARGES


@<TRIPOS>ATOM
   1 C1            -0.0184     1.5028     0.0103 C.2     
   2 C2             0.0021    -0.0041     0.0020 C.3     
   3 C3             1.4513    -0.4944    -0.0145 C.3     
   4 C4             1.4720    -2.0242    -0.0229 C.3     
   5 C5             2.9213    -2.5145    -0.0393 C.3     
   6 C6             2.9420    -4.0444    -0.0478 C.3     
   7 O7             1.0197     2.1211     0.0037 O.2     
   8 O8            -1.1898     2.1580     0.0194 O.3     
   9 N9             4.3334    -4.5151    -0.0636 N.3     
  10 H10           -0.4983    -0.3791     0.8948 H       
  11 H11           -0.5153    -0.3696    -0.8850 H       
  12 H12            1.9516    -0.1193    -0.9073 H       
  13 H13            1.9686    -0.1289     0.8726 H       
  14 H14            0.9717    -2.3993     0.8699 H       
  15 H15            0.9547    -2.3897    -0.9099 H       
  16 H16            3.4216    -2.1395    -0.9321 H       
  17 H17            3.4386    -2.1490     0.8477 H       
  18 H18            2.4417    -4.4194     0.8450 H       
  19 H19            2.4247    -4.4099    -0.9348 H       
  20 H20           -1.1523     3.1243     0.0245 H       
  21 H21            4.8520    -4.1368     0.7149 H       
  22 H22            4.3740    -5.5233    -0.0694 H       
@<TRIPOS>BOND
   1    1    2 1
   2    1    7 2
   3    1    8 1
   4    2    3 1
   5    2   10 1
   6    2   11 1
   7    3    4 1
   8    3   12 1
   9    3   13 1
  10    4    5 1
  11    4   14 1
  12    4   15 1
  13    5    6 1
  14    5   16 1
  15    5   17 1
  16    6    9 1
  17    6   18 1
  18    6   19 1
  19    8   20 1
  20    9   21 1
  21    9   22 1

#	End of record

