#	Name: ASD01141054
#	Creating user name:	WinNT
#	Creation time:	15. 06. 2019 19:01

#	Modifying user name:	WinNT
#	Modification time:	15. 06. 2019 19:01

#	Program:	/corina/corina34_cracker 3.40 0067  02.08.2006

@<TRIPOS>MOLECULE
ASD01141054
  39   40    0    0    0
SMALL
NO_CHARGES


@<TRIPOS>ATOM
   1 C1             0.0314     1.2805    -0.0482 C.2     
   2 C2            -0.4246    -0.0121     0.1349 C.2     
   3 C3             1.4723     1.5567    -0.0502 C.2     
   4 C4            -0.9254     2.3746    -0.2466 C.2     
   5 N5            -1.7421    -0.2443     0.3091 N.pl3   
   6 O6             2.1907     1.0356    -0.8830 O.2     
   7 C7             2.0514     2.4676     0.9591 C.ar    
   8 O8            -2.1099     2.1308    -0.3735 O.2     
   9 O9            -0.4914     3.6506    -0.2881 O.3     
  10 C10           -2.1942    -1.5401     0.5776 C.ar    
  11 C11            1.2491     2.9861     1.9780 C.ar    
  12 C12            3.4052     2.8090     0.9013 C.ar    
  13 C13           -3.5505    -1.7803     0.7572 C.ar    
  14 C14           -1.2882    -2.5899     0.6595 C.ar    
  15 C15            1.7961     3.8362     2.9180 C.ar    
  16 C16            3.9409     3.6603     1.8474 C.ar    
  17 C17           -3.9947    -3.0608     1.0218 C.ar    
  18 C18           -1.7375    -3.8696     0.9191 C.ar    
  19 C19            3.1402     4.1754     2.8518 C.ar    
  20 C20           -3.0891    -4.1050     1.1082 C.ar    
  21 F21           -3.5265    -5.3577     1.3625 F       
  22 H22           -2.3757     0.4876     0.2481 H       
  23 C23           -1.4750     4.6716    -0.6015 C.3     
  24 C24           -0.7798     6.0290    -0.7244 C.3     
  25 Cl25           3.8213     5.2450     4.0374 Cl      
  26 Cl26           4.4117     2.1637    -0.3573 Cl      
  27 F27            1.0204     4.3432     3.9011 F       
  28 H28            0.2740    -0.8358     0.1384 H       
  29 H29            0.2029     2.7229     2.0301 H       
  30 H30           -4.2570    -0.9662     0.6903 H       
  31 H31           -0.2333    -2.4054     0.5199 H       
  32 H32            4.9872     3.9245     1.8037 H       
  33 H33           -5.0491    -3.2480     1.1618 H       
  34 H34           -1.0336    -4.6862     0.9825 H       
  35 H35           -1.9645     4.4274    -1.5443 H       
  36 H36           -2.2193     4.7153     0.1937 H       
  37 H37           -0.2172     6.2328     0.1867 H       
  38 H38           -0.0993     6.0129    -1.5757 H       
  39 H39           -1.5276     6.8082    -0.8717 H       
@<TRIPOS>BOND
   1    1    2 2
   2    1    3 1
   3    1    4 1
   4    2    5 1
   5    2   28 1
   6    3    6 2
   7    3    7 1
   8    4    9 1
   9    4    8 2
  10    5   22 1
  11    5   10 1
  12    7   11 ar
  13    7   12 ar
  14    9   23 1
  15   10   13 ar
  16   10   14 ar
  17   11   15 ar
  18   11   29 1
  19   12   16 ar
  20   12   26 1
  21   13   17 ar
  22   13   30 1
  23   14   18 ar
  24   14   31 1
  25   15   19 ar
  26   15   27 1
  27   16   19 ar
  28   16   32 1
  29   17   20 ar
  30   17   33 1
  31   18   20 ar
  32   18   34 1
  33   19   25 1
  34   20   21 1
  35   23   24 1
  36   23   35 1
  37   23   36 1
  38   24   37 1
  39   24   38 1
  40   24   39 1

#	End of record

