#	Name: ASD03430934
#	Creating user name:	WinNT
#	Creation time:	15. 06. 2019 20:41

#	Modifying user name:	WinNT
#	Modification time:	15. 06. 2019 20:41

#	Program:	/corina/corina34_cracker 3.40 0067  02.08.2006

@<TRIPOS>MOLECULE
ASD03430934
  51   56    0    0    0
SMALL
NO_CHARGES


@<TRIPOS>ATOM
   1 O1            -0.0175     1.4357     0.0099 O.3     
   2 C2             0.0021    -0.0041     0.0020 C.3     
   3 C3             1.3426    -0.3185    -0.6751 C.3     
   4 C4             2.1597     0.9188    -0.4141 C.ar    
   5 C5             1.2632     1.9074     0.0002 C.ar    
   6 C6             1.7415     3.1620     0.3281 C.ar    
   7 C7             3.1151     3.4558     0.2376 C.ar    
   8 C8             3.9903     2.4517    -0.1907 C.ar    
   9 C9             3.5022     1.1878    -0.5122 C.ar    
  10 N10            2.1543    -2.4058    -1.1321 N.am    
  11 C11            1.9815    -1.5517    -0.1037 C.2     
  12 C12            1.1819    -0.5961    -2.1401 C.ar    
  13 C13            0.6689     0.1253    -3.1944 C.ar    
  14 C14            0.6624    -0.4170    -4.4676 C.ar    
  15 C15            1.1720    -1.6849    -4.6780 C.ar    
  16 C16            1.6866    -2.4124    -3.6247 C.ar    
  17 C17            1.6961    -1.8750    -2.3402 C.ar    
  18 O18            2.2834    -1.7417     1.0555 O.2     
  19 C19            2.7536    -3.7359    -0.9984 C.3     
  20 C20            1.6574    -4.7619    -0.7043 C.3     
  21 C21            2.2633    -6.1687    -0.6877 C.3     
  22 C22            1.0358    -4.4695     0.6648 C.3     
  23 C23           -0.0042    -5.5464     0.9849 C.3     
  24 O24            0.6184    -6.8323     0.9536 O.3     
  25 C25            1.1759    -7.1799    -0.3154 C.3     
  26 S26            5.6197     3.1188    -0.2076 S.3     
  27 C27            5.0350     4.6252     0.3406 C.2     
  28 N28            3.7667     4.6041     0.5073 N.2     
  29 C29            5.9039     5.8295     0.5969 C.3     
  30 H30           -0.0190    -0.3966     1.0187 H       
  31 H31           -0.8285    -0.3987    -0.5832 H       
  32 H32            1.0531     3.9262     0.6574 H       
  33 H33            4.1826     0.4161    -0.8408 H       
  34 H34            0.2708     1.1153    -3.0277 H       
  35 H35            0.2598     0.1487    -5.2948 H       
  36 H36            1.1676    -2.1077    -5.6718 H       
  37 H37            2.0831    -3.4021    -3.7970 H       
  38 H38            3.2600    -4.0012    -1.9264 H       
  39 H39            3.4740    -3.7293    -0.1804 H       
  40 H40            0.8886    -4.7051    -1.4749 H       
  41 H41            2.6591    -6.4064    -1.6751 H       
  42 H42            3.0668    -6.2105     0.0476 H       
  43 H43            1.8146    -4.4771     1.4275 H       
  44 H44            0.5538    -3.4921     0.6448 H       
  45 H45           -0.4192    -5.3675     1.9768 H       
  46 H46           -0.8034    -5.5113     0.2446 H       
  47 H47            0.3921    -7.1662    -1.0728 H       
  48 H48            1.6110    -8.1778    -0.2603 H       
  49 H49            5.9807     6.4226    -0.3144 H       
  50 H50            5.4616     6.4349     1.3881 H       
  51 H51            6.8977     5.5022     0.9023 H       
@<TRIPOS>BOND
   1    1    2 1
   2    1    5 1
   3    2    3 1
   4    2   30 1
   5    2   31 1
   6    3    4 1
   7    3   11 1
   8    3   12 1
   9    4    5 ar
  10    4    9 ar
  11    5    6 ar
  12    6    7 ar
  13    6   32 1
  14    7    8 ar
  15    7   28 1
  16    8    9 ar
  17    8   26 1
  18    9   33 1
  19   10   11 am
  20   10   17 1
  21   10   19 1
  22   11   18 2
  23   12   13 ar
  24   12   17 ar
  25   13   14 ar
  26   13   34 1
  27   14   15 ar
  28   14   35 1
  29   15   16 ar
  30   15   36 1
  31   16   17 ar
  32   16   37 1
  33   19   20 1
  34   19   38 1
  35   19   39 1
  36   20   21 1
  37   20   22 1
  38   20   40 1
  39   21   25 1
  40   21   41 1
  41   21   42 1
  42   22   23 1
  43   22   43 1
  44   22   44 1
  45   23   24 1
  46   23   45 1
  47   23   46 1
  48   24   25 1
  49   25   47 1
  50   25   48 1
  51   26   27 1
  52   27   28 2
  53   27   29 1
  54   29   49 1
  55   29   50 1
  56   29   51 1

#	End of record

