#	Name: ASD04882291
#	Creating user name:	WinNT
#	Creation time:	15. 06. 2019 20:54

#	Modifying user name:	WinNT
#	Modification time:	15. 06. 2019 20:54

#	Program:	/corina/corina34_cracker 3.40 0067  02.08.2006

@<TRIPOS>MOLECULE
ASD04882291
  83   88    0    0    0
SMALL
NO_CHARGES


@<TRIPOS>ATOM
   1 N1            -0.0169     1.3965     0.0097 N.am    
   2 C2             0.1108     0.0023    -0.0345 C.ar    
   3 C3            -1.0259    -0.8071     0.0451 C.ar    
   4 C4            -0.9006    -2.1910     0.0009 C.ar    
   5 C5             0.3433    -2.7693    -0.1209 C.ar    
   6 C6             1.4842    -1.9658    -0.2009 C.ar    
   7 C7             1.3606    -0.5741    -0.1625 C.ar    
   8 N8            -2.2855    -0.2267     0.1692 N.3     
   9 C9            -3.1515    -0.6016    -0.9574 C.3     
  10 C10           -2.9076    -0.5874     1.4507 C.3     
  11 C11           -4.2520     0.1322     1.5826 C.3     
  12 N12           -5.1179    -0.2427     0.4560 N.3     
  13 C13           -4.4958     0.1181    -0.8255 C.3     
  14 C14            2.8166    -2.5857    -0.3308 C.2     
  15 O15            3.8086    -1.8859    -0.4004 O.2     
  16 C16            0.9203     2.1775    -0.5630 C.2     
  17 C17            0.7423     3.6389    -0.5941 C.2     
  18 O18            1.9133     1.6752    -1.0542 O.2     
  19 S19           -0.6342     4.5103     0.0723 S.3     
  20 N20            1.5818     4.4889    -1.1142 N.2     
  21 C21            1.2395     5.7560    -1.0402 C.2     
  22 C22            0.0478     5.9984    -0.4235 C.2     
  23 N23            2.9343    -3.9276    -0.3724 N.am    
  24 C24           -6.3814     0.3396     0.5805 C.ar    
  25 C25           -6.5094     1.7218     0.6254 C.ar    
  26 C26           -7.5134    -0.4625     0.6540 C.ar    
  27 C27           -8.7610     0.1164     0.7771 C.ar    
  28 C28           -8.8845     1.4931     0.8268 C.ar    
  29 C29           -7.7604     2.2944     0.7486 C.ar    
  30 C30           -7.3800    -1.9626     0.5990 C.3     
  31 C31            2.0892     6.8434    -1.5859 C.ar    
  32 C32            4.2575    -4.5432    -0.5014 C.3     
  33 C33            4.1114    -6.0660    -0.5244 C.3     
  34 C34            5.4933    -6.7089    -0.6591 C.3     
  35 N35            5.3534    -8.1671    -0.6811 N.am    
  36 C36            5.1699    -8.9631    -1.9004 C.3     
  37 C37            4.6433   -10.3343    -1.4220 C.3     
  38 C38            5.1947   -10.3977     0.0213 C.3     
  39 C39            5.3825    -8.9484     0.4123 C.2     
  40 O40            5.5304    -8.5488     1.5479 O.2     
  41 C41            3.2999     6.5406    -2.2056 C.ar    
  42 C42            1.6765     8.1705    -1.4856 C.ar    
  43 C43            2.4707     9.1778    -1.9948 C.ar    
  44 C44            3.6744     8.8720    -2.6039 C.ar    
  45 C45            4.0862     7.5559    -2.7113 C.ar    
  46 H46           -0.7820     1.7997     0.4490 H       
  47 H47           -1.7807    -2.8139     0.0625 H       
  48 H48            0.4374    -3.8447    -0.1543 H       
  49 H49            2.2403     0.0493    -0.2241 H       
  50 H50           -2.6748    -0.3130    -1.8942 H       
  51 H51           -3.3136    -1.6794    -0.9485 H       
  52 H52           -3.0670    -1.6651     1.4870 H       
  53 H53           -2.2533    -0.2884     2.2696 H       
  54 H54           -4.7286    -0.1564     2.5194 H       
  55 H55           -4.0899     1.2101     1.5736 H       
  56 H56           -4.3364     1.1957    -0.8618 H       
  57 H57           -5.1502    -0.1809    -1.6444 H       
  58 H58           -0.3934     6.9724    -0.2714 H       
  59 H59            2.1430    -4.4859    -0.3169 H       
  60 H60           -5.6318     2.3483     0.5644 H       
  61 H61           -9.6414    -0.5065     0.8343 H       
  62 H62           -9.8615     1.9433     0.9224 H       
  63 H63           -7.8603     3.3690     0.7877 H       
  64 H64           -7.2603    -2.3540     1.6092 H       
  65 H65           -8.2748    -2.3906     0.1472 H       
  66 H66           -6.5084    -2.2281     0.0008 H       
  67 H67            4.7249    -4.2090    -1.4276 H       
  68 H68            4.8785    -4.2505     0.3452 H       
  69 H69            3.6440    -6.4002     0.4019 H       
  70 H70            3.4904    -6.3587    -1.3710 H       
  71 H71            5.9607    -6.3747    -1.5853 H       
  72 H72            6.1143    -6.4162     0.1875 H       
  73 H73            4.4406    -8.4867    -2.5556 H       
  74 H74            6.1212    -9.0842    -2.4185 H       
  75 H75            3.5536   -10.3562    -1.4246 H       
  76 H76            5.0497   -11.1421    -2.0306 H       
  77 H77            4.4777   -10.8843     0.6825 H       
  78 H78            6.1504   -10.9213     0.0419 H       
  79 H79            3.6226     5.5133    -2.2897 H       
  80 H80            0.7367     8.4104    -1.0105 H       
  81 H81            2.1516    10.2068    -1.9179 H       
  82 H82            4.2928     9.6634    -3.0010 H       
  83 H83            5.0271     7.3227    -3.1875 H       
@<TRIPOS>BOND
   1    1    2 1
   2    1   16 am
   3    1   46 1
   4    2    3 ar
   5    2    7 ar
   6    3    4 ar
   7    3    8 1
   8    4    5 ar
   9    4   47 1
  10    5    6 ar
  11    5   48 1
  12    6    7 ar
  13    6   14 1
  14    7   49 1
  15    8    9 1
  16    8   10 1
  17    9   13 1
  18    9   50 1
  19    9   51 1
  20   10   11 1
  21   10   52 1
  22   10   53 1
  23   11   12 1
  24   11   54 1
  25   11   55 1
  26   12   13 1
  27   12   24 1
  28   13   56 1
  29   13   57 1
  30   14   15 2
  31   14   23 am
  32   16   18 2
  33   16   17 1
  34   17   19 1
  35   17   20 2
  36   19   22 1
  37   20   21 1
  38   21   22 2
  39   21   31 1
  40   22   58 1
  41   23   32 1
  42   23   59 1
  43   24   25 ar
  44   24   26 ar
  45   25   29 ar
  46   25   60 1
  47   26   27 ar
  48   26   30 1
  49   27   28 ar
  50   27   61 1
  51   28   29 ar
  52   28   62 1
  53   29   63 1
  54   30   64 1
  55   30   65 1
  56   30   66 1
  57   31   41 ar
  58   31   42 ar
  59   32   33 1
  60   32   67 1
  61   32   68 1
  62   33   34 1
  63   33   69 1
  64   33   70 1
  65   34   35 1
  66   34   71 1
  67   34   72 1
  68   35   36 1
  69   35   39 am
  70   36   37 1
  71   36   73 1
  72   36   74 1
  73   37   38 1
  74   37   75 1
  75   37   76 1
  76   38   39 1
  77   38   77 1
  78   38   78 1
  79   39   40 2
  80   41   45 ar
  81   41   79 1
  82   42   43 ar
  83   42   80 1
  84   43   44 ar
  85   43   81 1
  86   44   45 ar
  87   44   82 1
  88   45   83 1

#	End of record

