#	Name: ASD02820004
#	Creating user name:	WinNT
#	Creation time:	15. 06. 2019 20:26

#	Modifying user name:	WinNT
#	Modification time:	15. 06. 2019 20:26

#	Program:	/corina/corina34_cracker 3.40 0067  02.08.2006

@<TRIPOS>MOLECULE
ASD02820004
  56   58    0    0    0
SMALL
NO_CHARGES


@<TRIPOS>ATOM
   1 N1             1.2390     1.1971    -2.1781 N.ar    
   2 C2             1.1522    -0.1184    -2.0278 C.ar    
   3 N3             1.8327    -0.7651    -1.0977 N.ar    
   4 C4             2.6467    -0.1148    -0.2588 C.ar    
   5 C5             2.7739     1.2762    -0.3757 C.ar    
   6 C6             2.0203     1.9253    -1.3929 C.ar    
   7 S7             3.6569    -0.7071     1.0514 S.3     
   8 C8             4.2390     0.9022     1.4311 C.2     
   9 C9             3.6890     1.8278     0.6018 C.2     
  10 N10            3.9789     3.1826     0.6845 N.pl3   
  11 C11            5.1592     1.1983     2.4644 C.2     
  12 N12            5.6490     0.2071     3.2351 N.am    
  13 O13            5.5086     2.3492     2.6575 O.2     
  14 C14            6.6017     0.5136     4.3049 C.3     
  15 C15            5.9541     1.4736     5.3049 C.3     
  16 C16            6.9972    -0.7790     5.0216 C.3     
  17 C17            7.8489     1.1666     3.7056 C.3     
  18 C18            2.1074     3.3916    -1.5718 C.ar    
  19 C19            3.3557     4.0144    -1.6330 C.ar    
  20 C20            0.9413     4.1515    -1.6850 C.ar    
  21 C21            1.0220     5.5153    -1.8514 C.ar    
  22 C22            2.2705     6.1394    -1.9070 C.ar    
  23 C23            3.4370     5.3783    -1.7994 C.ar    
  24 C24            2.3574     7.6028    -2.0854 C.2     
  25 C25            3.5432     8.1954    -2.1382 C.2     
  26 C26            3.6319     9.6887    -2.3203 C.3     
  27 S27            0.0959    -1.0319    -3.1022 S.3     
  28 C28            0.3656    -2.7032    -2.4618 C.3     
  29 O29            4.5948    10.2233    -1.4098 O.3     
  30 C30            4.7569    11.6402    -1.5008 C.3     
  31 H31            4.8593     3.4737     0.9692 H       
  32 H32            3.3011     3.8383     0.4576 H       
  33 H33            5.3708    -0.7094     3.0813 H       
  34 H34            5.0656     1.0084     5.7319 H       
  35 H35            6.6629     1.7017     6.1009 H       
  36 H36            5.6723     2.3945     4.7944 H       
  37 H37            7.4586    -1.4629     4.3092 H       
  38 H38            7.7060    -0.5509     5.8176 H       
  39 H39            6.1087    -1.2441     5.4486 H       
  40 H40            7.5672     2.0875     3.1951 H       
  41 H41            8.5577     1.3947     4.5016 H       
  42 H42            8.3103     0.4827     2.9932 H       
  43 H43            4.2574     3.4260    -1.5495 H       
  44 H44           -0.0239     3.6689    -1.6424 H       
  45 H45            0.1201     6.1029    -1.9393 H       
  46 H46            4.4024     5.8605    -1.8423 H       
  47 H47            1.4556     8.1906    -2.1730 H       
  48 H48            4.4450     7.6076    -2.0506 H       
  49 H49            3.9355     9.9127    -3.3430 H       
  50 H50            2.6580    10.1372    -2.1239 H       
  51 H51            1.4206    -2.9615    -2.5531 H       
  52 H52            0.0714    -2.7423    -1.4129 H       
  53 H53           -0.2329    -3.4124    -3.0336 H       
  54 H54            5.5042    11.9676    -0.7780 H       
  55 H55            5.0838    11.9046    -2.5065 H       
  56 H56            3.8064    12.1291    -1.2874 H       
@<TRIPOS>BOND
   1    1    2 ar
   2    1    6 ar
   3    2    3 ar
   4    2   27 1
   5    3    4 ar
   6    4    5 ar
   7    4    7 1
   8    5    6 ar
   9    5    9 1
  10    6   18 1
  11    7    8 1
  12    8    9 2
  13    8   11 1
  14    9   10 1
  15   10   31 1
  16   10   32 1
  17   11   12 am
  18   11   13 2
  19   12   14 1
  20   12   33 1
  21   14   15 1
  22   14   16 1
  23   14   17 1
  24   15   34 1
  25   15   35 1
  26   15   36 1
  27   16   37 1
  28   16   38 1
  29   16   39 1
  30   17   40 1
  31   17   41 1
  32   17   42 1
  33   18   19 ar
  34   18   20 ar
  35   19   23 ar
  36   19   43 1
  37   20   21 ar
  38   20   44 1
  39   21   22 ar
  40   21   45 1
  41   22   23 ar
  42   22   24 1
  43   23   46 1
  44   24   25 2
  45   24   47 1
  46   25   26 1
  47   25   48 1
  48   26   29 1
  49   26   49 1
  50   26   50 1
  51   27   28 1
  52   28   51 1
  53   28   52 1
  54   28   53 1
  55   29   30 1
  56   30   54 1
  57   30   55 1
  58   30   56 1

#	End of record

