#	Name: ASD02500773
#	Creating user name:	WinNT
#	Creation time:	15. 06. 2019 20:23

#	Modifying user name:	WinNT
#	Modification time:	15. 06. 2019 20:23

#	Program:	/corina/corina34_cracker 3.40 0067  02.08.2006

@<TRIPOS>MOLECULE
ASD02500773
  54   57    0    0    0
SMALL
NO_CHARGES


@<TRIPOS>ATOM
   1 O1            -0.0164     1.3569     0.0095 O.3     
   2 C2             0.0021    -0.0041     0.0020 C.ar    
   3 C3             1.1496    -0.6980    -0.3644 C.ar    
   4 O4             2.2825    -0.0325    -0.7194 O.3     
   5 C5             2.1357     1.3497    -1.0629 C.3     
   6 C6             1.2537     2.0177     0.0009 C.3     
   7 C7             1.1451    -2.0846    -0.3687 C.ar    
   8 C8             0.0032    -2.7746    -0.0070 C.ar    
   9 C9            -1.1371    -2.0847     0.3592 C.ar    
  10 C10           -1.1397    -0.7023     0.3645 C.ar    
  11 S11            0.0010    -4.5366    -0.0137 S.o2    
  12 O12           -1.3555    -4.9357    -0.1538 O.2     
  13 O13            1.0256    -4.9357    -0.9138 O.2     
  14 N14            0.4814    -5.0330     1.4914 N.am    
  15 C15           -0.3527    -4.7410     2.6599 C.3     
  16 C16           -0.2603    -5.8997     3.6547 C.3     
  17 C17           -1.1314    -5.5948     4.8750 C.3     
  18 C18           -0.6410    -4.3087     5.5431 C.3     
  19 C19           -0.7334    -3.1500     4.5483 C.3     
  20 C20            0.1377    -3.4549     3.3279 C.3     
  21 S21           -0.8017    -3.3270     8.0581 S.o2    
  22 O22           -1.8611    -3.1424     8.9869 O.2     
  23 O23            0.3675    -4.0792     8.3522 O.2     
  24 N24           -1.4751    -4.0168     6.7116 N.am    
  25 C25           -0.2547    -1.7158     7.6006 C.ar    
  26 C26           -1.1082    -0.6332     7.7251 C.ar    
  27 C27           -0.6773     0.6326     7.3653 C.ar    
  28 C28            0.6045     0.8153     6.8819 C.ar    
  29 C29            1.4577    -0.2648     6.7571 C.ar    
  30 C30            1.0308    -1.5307     7.1218 C.ar    
  31 F31            1.8669    -2.5854     7.0054 F       
  32 F32           -2.3615    -0.8116     8.1972 F       
  33 H33            3.1142     1.8295    -1.0831 H       
  34 H34            1.6625     1.4372    -2.0409 H       
  35 H35            1.1182     3.0714    -0.2428 H       
  36 H36            1.7236     1.9238     0.9800 H       
  37 H37            2.0346    -2.6260    -0.6551 H       
  38 H38           -2.0275    -2.6266     0.6418 H       
  39 H39           -2.0319    -0.1657     0.6516 H       
  40 H40            1.3150    -5.5171     1.5993 H       
  41 H41           -1.3884    -4.6146     2.3445 H       
  42 H42           -0.6096    -6.8160     3.1788 H       
  43 H43            0.7754    -6.0262     3.9701 H       
  44 H44           -2.1671    -5.4684     4.5597 H       
  45 H45           -1.0656    -6.4203     5.5838 H       
  46 H46            0.3947    -4.4352     5.8585 H       
  47 H47           -1.7691    -3.0236     4.2329 H       
  48 H48           -0.3841    -2.2337     5.0242 H       
  49 H49            1.1734    -3.5813     3.6433 H       
  50 H50            0.0719    -2.6294     2.6192 H       
  51 H51           -2.4218    -4.2275     6.6965 H       
  52 H52           -1.3432     1.4773     7.4620 H       
  53 H53            0.9397     1.8029     6.6011 H       
  54 H54            2.4590    -0.1210     6.3790 H       
@<TRIPOS>BOND
   1    1    2 1
   2    1    6 1
   3    2    3 ar
   4    2   10 ar
   5    3    4 1
   6    3    7 ar
   7    4    5 1
   8    5    6 1
   9    5   33 1
  10    5   34 1
  11    6   35 1
  12    6   36 1
  13    7    8 ar
  14    7   37 1
  15    8    9 ar
  16    8   11 1
  17    9   10 ar
  18    9   38 1
  19   10   39 1
  20   11   12 2
  21   11   13 2
  22   11   14 am
  23   14   15 1
  24   14   40 1
  25   15   16 1
  26   15   20 1
  27   15   41 1
  28   16   17 1
  29   16   42 1
  30   16   43 1
  31   17   18 1
  32   17   44 1
  33   17   45 1
  34   18   19 1
  35   18   24 1
  36   18   46 1
  37   19   20 1
  38   19   47 1
  39   19   48 1
  40   20   49 1
  41   20   50 1
  42   21   22 2
  43   21   23 2
  44   21   24 am
  45   21   25 1
  46   24   51 1
  47   25   26 ar
  48   25   30 ar
  49   26   27 ar
  50   26   32 1
  51   27   28 ar
  52   27   52 1
  53   28   29 ar
  54   28   53 1
  55   29   30 ar
  56   29   54 1
  57   30   31 1

#	End of record

