#	Name: ASD00450075
#	Creating user name:	WinNT
#	Creation time:	15. 06. 2019 18:36

#	Modifying user name:	WinNT
#	Modification time:	15. 06. 2019 18:36

#	Program:	/corina/corina34_cracker 3.40 0067  02.08.2006

@<TRIPOS>MOLECULE
ASD00450075
  46   48    0    0    0
SMALL
NO_CHARGES


@<TRIPOS>ATOM
   1 C1             0.5140     1.3070    -0.3077 C.ar    
   2 C2             0.4720    -0.0905    -0.1853 C.ar    
   3 C3             1.6283    -0.7905     0.1124 C.ar    
   4 C4             2.8266    -0.1172     0.2903 C.ar    
   5 C5             2.8812     1.2624     0.1721 C.ar    
   6 C6             1.7328     1.9827    -0.1264 C.ar    
   7 C7            -0.7080     2.0586    -0.6297 C.2     
   8 O8            -1.4250     2.4659     0.2647 O.2     
   9 N9            -1.0338     2.2963    -1.9157 N.am    
  10 N10            1.7882     3.3673    -0.2454 N.pl3   
  11 C11            3.0148     4.0017    -0.4683 C.ar    
  12 C12            3.6755     3.8353    -1.6810 C.ar    
  13 C13            3.5730     4.8035     0.5184 C.ar    
  14 C14            4.7845     5.4287     0.2957 C.ar    
  15 C15            5.4425     5.2577    -0.9091 C.ar    
  16 C16            4.8879     4.4641    -1.8972 C.ar    
  17 F17            3.9490    -0.8105     0.5815 F       
  18 F18            3.1337     3.0602    -2.6458 F       
  19 I19            7.2788     6.2097    -1.2413 I       
  20 F20            4.0549     1.9079     0.3482 F       
  21 O21           -0.6991    -0.7535    -0.3578 O.3     
  22 C22           -0.6755    -2.1119    -0.3159 C.ar    
  23 C23           -0.5854    -2.7664     0.9029 C.ar    
  24 C24           -0.5620    -4.1532     0.9431 C.ar    
  25 C25           -0.6290    -4.8824    -0.2395 C.ar    
  26 C26           -0.7183    -4.2252    -1.4529 C.ar    
  27 C27           -0.7474    -2.8438    -1.4928 C.ar    
  28 N28           -0.4707    -4.8167     2.1706 N.am    
  29 S29            0.3884    -4.1415     3.4150 S.o2    
  30 O30            0.3058    -5.0540     4.5012 O.2     
  31 O31            1.6210    -3.7032     2.8601 O.2     
  32 N32           -0.4231    -2.7775     3.8874 N.am    
  33 F33           -0.6063    -6.2327    -0.2027 F       
  34 H34            1.5966    -1.8659     0.2067 H       
  35 H35           -0.4621     1.9715    -2.6288 H       
  36 H36           -1.8400     2.7922    -2.1281 H       
  37 H37            0.9762     3.8931    -0.1739 H       
  38 H38            3.0602     4.9385     1.4592 H       
  39 H39            5.2185     6.0523     1.0632 H       
  40 H40            5.4022     4.3355    -2.8382 H       
  41 H41           -0.5332    -2.1978     1.8196 H       
  42 H42           -0.7699    -4.7923    -2.3706 H       
  43 H43           -0.8176    -2.3332    -2.4418 H       
  44 H44           -0.9106    -5.6725     2.2933 H       
  45 H45           -1.2446    -2.5222     3.4392 H       
  46 H46           -0.0770    -2.2338     4.6123 H       
@<TRIPOS>BOND
   1    1    2 ar
   2    1    6 ar
   3    1    7 1
   4    2    3 ar
   5    2   21 1
   6    3    4 ar
   7    3   34 1
   8    4    5 ar
   9    4   17 1
  10    5    6 ar
  11    5   20 1
  12    6   10 1
  13    7    8 2
  14    7    9 am
  15    9   35 1
  16    9   36 1
  17   10   11 1
  18   10   37 1
  19   11   13 ar
  20   11   12 ar
  21   12   16 ar
  22   12   18 1
  23   13   14 ar
  24   13   38 1
  25   14   15 ar
  26   14   39 1
  27   15   16 ar
  28   15   19 1
  29   16   40 1
  30   21   22 1
  31   22   23 ar
  32   22   27 ar
  33   23   24 ar
  34   23   41 1
  35   24   25 ar
  36   24   28 1
  37   25   26 ar
  38   25   33 1
  39   26   27 ar
  40   26   42 1
  41   27   43 1
  42   28   29 am
  43   28   44 1
  44   29   30 2
  45   29   31 2
  46   29   32 am
  47   32   45 1
  48   32   46 1

#	End of record

