#	Name: ASD02198279
#	Creating user name:	WinNT
#	Creation time:	15. 06. 2019 20:19

#	Modifying user name:	WinNT
#	Modification time:	15. 06. 2019 20:19

#	Program:	/corina/corina34_cracker 3.40 0067  02.08.2006

@<TRIPOS>MOLECULE
ASD02198279
  40   43    0    0    0
SMALL
NO_CHARGES


@<TRIPOS>ATOM
   1 C1             0.0863     1.3376    -0.9493 C.2     
   2 C2             0.0777    -0.0337    -0.7607 C.2     
   3 S3             1.7329     1.9041    -0.6819 S.3     
   4 C4             2.2464     0.3081    -0.3524 C.2     
   5 N5             1.2518    -0.5274    -0.4454 N.2     
   6 N6            -1.0615    -0.8105    -0.8922 N.pl3   
   7 C7            -1.0200     2.1350    -1.2978 C.2     
   8 O8            -2.1144     1.6216    -1.4617 O.2     
   9 C9            -0.8559     3.5925    -1.4649 C.2     
  10 N10            3.5371    -0.0466    -0.0315 N.pl3   
  11 C11            3.8883    -1.3976     0.0634 C.ar    
  12 C12           -1.8279     4.4934    -1.7990 C.2     
  13 C13           -1.1424     5.7378    -1.8244 C.2     
  14 N14            0.1047     5.4773    -1.5202 N.2     
  15 O15            0.2795     4.2993    -1.3129 O.3     
  16 C16           -1.7237     7.0681    -2.1346 C.ar    
  17 C17           -0.9174     8.2042    -2.1190 C.ar    
  18 C18            5.1332    -1.7608     0.5673 C.ar    
  19 C19            5.4758    -3.0970     0.6598 C.ar    
  20 C20            4.5823    -4.0710     0.2520 C.ar    
  21 C21            3.3447    -3.7124    -0.2490 C.ar    
  22 C22            2.9932    -2.3791    -0.3395 C.ar    
  23 F23            6.0060    -0.8094     0.9651 F       
  24 C24           -3.0761     7.1842    -2.4479 C.ar    
  25 C25           -3.6114     8.4234    -2.7359 C.ar    
  26 C26           -2.8074     9.5487    -2.7143 C.ar    
  27 C27           -1.4629     9.4385    -2.4085 C.ar    
  28 H28           -1.9065    -0.3963    -1.1273 H       
  29 H29           -1.0143    -1.7688    -0.7492 H       
  30 H30            4.2032     0.6401     0.1287 H       
  31 H31           -2.8725     4.3039    -1.9972 H       
  32 H32            0.1325     8.1192    -1.8804 H       
  33 H33            6.4419    -3.3805     1.0504 H       
  34 H34            4.8522    -5.1141     0.3249 H       
  35 H35            2.6499    -4.4758    -0.5666 H       
  36 H36            2.0260    -2.1006    -0.7311 H       
  37 H37           -3.7046     6.3060    -2.4657 H       
  38 H38           -4.6597     8.5145    -2.9789 H       
  39 H39           -3.2301    10.5164    -2.9406 H       
  40 H40           -0.8396    10.3203    -2.3930 H       
@<TRIPOS>BOND
   1    1    2 2
   2    1    3 1
   3    1    7 1
   4    2    6 1
   5    2    5 1
   6    3    4 1
   7    4    5 2
   8    4   10 1
   9    6   28 1
  10    6   29 1
  11    7    8 2
  12    7    9 1
  13    9   12 2
  14    9   15 1
  15   10   11 1
  16   10   30 1
  17   11   18 ar
  18   11   22 ar
  19   12   13 1
  20   12   31 1
  21   13   14 2
  22   13   16 1
  23   14   15 1
  24   16   17 ar
  25   16   24 ar
  26   17   27 ar
  27   17   32 1
  28   18   19 ar
  29   18   23 1
  30   19   20 ar
  31   19   33 1
  32   20   21 ar
  33   20   34 1
  34   21   22 ar
  35   21   35 1
  36   22   36 1
  37   24   25 ar
  38   24   37 1
  39   25   26 ar
  40   25   38 1
  41   26   27 ar
  42   26   39 1
  43   27   40 1

#	End of record

