#	Name: ASD02198175
#	Creating user name:	WinNT
#	Creation time:	15. 06. 2019 20:18

#	Modifying user name:	WinNT
#	Modification time:	15. 06. 2019 20:18

#	Program:	/corina/corina34_cracker 3.40 0067  02.08.2006

@<TRIPOS>MOLECULE
ASD02198175
  39   41    0    0    0
SMALL
NO_CHARGES


@<TRIPOS>ATOM
   1 C1            -0.0182     1.3432    -0.2951 C.2     
   2 C2             0.0099    -0.0351    -0.2557 C.2     
   3 C3            -1.1721    -0.8418    -0.3076 C.1     
   4 S4             1.5587     1.9862    -0.2141 S.3     
   5 C5             2.2777     0.3863    -0.1255 C.2     
   6 C6             1.2920    -0.5719    -0.1610 C.2     
   7 C7             3.6574     0.1239    -0.0326 C.2     
   8 C8             4.6310     1.2328    -0.1476 C.ar    
   9 O9             4.0506    -1.0169     0.1426 O.2     
  10 N10            1.5478    -1.9330    -0.1075 N.pl3   
  11 N11           -1.1638     2.0972    -0.3925 N.pl3   
  12 N12           -2.1099    -1.4816    -0.3487 N.1     
  13 C13            5.8544     1.1630     0.5198 C.ar    
  14 C14           -1.0776     3.5593    -0.4265 C.3     
  15 C15           -2.3107     4.1436    -1.1377 C.3     
  16 C16            6.7576     2.2000     0.4085 C.ar    
  17 C17            6.4522     3.3076    -0.3624 C.ar    
  18 C18            5.2406     3.3831    -1.0262 C.ar    
  19 C19            4.3316     2.3498    -0.9285 C.ar    
  20 C20           -3.0284     5.0418    -0.1091 C.3     
  21 C21           -1.9176     5.4268     0.8993 C.3     
  22 C22           -1.0890     4.1228     1.0096 C.3     
  23 H23            2.4613    -2.2525    -0.0414 H       
  24 H24            0.8135    -2.5660    -0.1361 H       
  25 H25           -2.0290     1.6612    -0.4388 H       
  26 H26            6.0937     0.2993     1.1223 H       
  27 H27           -0.1682     3.8676    -0.9421 H       
  28 H28           -1.9996     4.7362    -1.9981 H       
  29 H29           -2.9732     3.3393    -1.4576 H       
  30 H30            7.7049     2.1472     0.9245 H       
  31 H31            7.1624     4.1169    -0.4460 H       
  32 H32            5.0080     4.2505    -1.6261 H       
  33 H33            3.3862     2.4099    -1.4471 H       
  34 H34           -3.4289     5.9321    -0.5938 H       
  35 H35           -3.8231     4.4887     0.3915 H       
  36 H36           -1.3067     6.2408     0.5090 H       
  37 H37           -2.3478     5.6939     1.8646 H       
  38 H38           -1.5705     3.4213     1.6908 H       
  39 H39           -0.0742     4.3425     1.3412 H       
@<TRIPOS>BOND
   1    1    2 2
   2    1    4 1
   3    1   11 1
   4    2    3 1
   5    2    6 1
   6    3   12 3
   7    4    5 1
   8    5    6 2
   9    5    7 1
  10    6   10 1
  11    7    8 1
  12    7    9 2
  13    8   13 ar
  14    8   19 ar
  15   10   23 1
  16   10   24 1
  17   11   14 1
  18   11   25 1
  19   13   16 ar
  20   13   26 1
  21   14   15 1
  22   14   22 1
  23   14   27 1
  24   15   20 1
  25   15   28 1
  26   15   29 1
  27   16   17 ar
  28   16   30 1
  29   17   18 ar
  30   17   31 1
  31   18   19 ar
  32   18   32 1
  33   19   33 1
  34   20   21 1
  35   20   34 1
  36   20   35 1
  37   21   22 1
  38   21   36 1
  39   21   37 1
  40   22   38 1
  41   22   39 1

#	End of record

