#	Name: ASD01140362
#	Creating user name:	WinNT
#	Creation time:	15. 06. 2019 19:00

#	Modifying user name:	WinNT
#	Modification time:	15. 06. 2019 19:00

#	Program:	/corina/corina34_cracker 3.40 0067  02.08.2006

@<TRIPOS>MOLECULE
ASD01140362
  32   35    0    0    0
SMALL
NO_CHARGES


@<TRIPOS>ATOM
   1 N1            -0.0165     1.3629     0.0095 N.pl3   
   2 C2             0.0021    -0.0041     0.0020 C.2     
   3 C3             1.2440    -0.8628    -0.0466 C.3     
   4 N4             1.9825    -0.4792    -1.2556 N.pl3   
   5 C5             2.4122     0.7680    -1.5432 C.2     
   6 C6             2.2376     1.9844    -0.7244 C.ar    
   7 C7             1.0751     2.2361     0.0038 C.ar    
   8 C8             3.2882     2.9094    -0.6872 C.ar    
   9 C9             3.1770     4.0588     0.0658 C.ar    
  10 C10            2.0230     4.3036     0.7918 C.ar    
  11 C11            0.9796     3.4008     0.7612 C.ar    
  12 N12            2.3733    -1.3043    -2.3139 N.2     
  13 C13            3.0043    -0.5408    -3.1708 C.2     
  14 N14            3.0295     0.7070    -2.7100 N.2     
  15 C15           -1.3263     1.7338     0.0355 C.2     
  16 N16           -2.0643     0.6573     0.0555 N.2     
  17 C17           -1.2713    -0.4262     0.0357 C.2     
  18 C18            3.6070    -1.0027    -4.4726 C.3     
  19 C19           -1.7300    -1.8616     0.0486 C.3     
  20 F20           -1.8373    -2.3050     1.3711 F       
  21 Cl21           4.4845     5.2002     0.1045 Cl      
  22 H22            1.8564    -0.6816     0.8367 H       
  23 H23            0.9665    -1.9156    -0.0985 H       
  24 H24            4.1898     2.7217    -1.2514 H       
  25 H25            1.9393     5.2036     1.3829 H       
  26 H26            0.0825     3.5986     1.3291 H       
  27 H27           -1.6934     2.7495     0.0395 H       
  28 H28            2.8647    -0.9192    -5.2664 H       
  29 H29            4.4692    -0.3813    -4.7145 H       
  30 H30            3.9229    -2.0416    -4.3783 H       
  31 H31           -2.7016    -1.9369    -0.4398 H       
  32 H32           -1.0067    -2.4790    -0.4841 H       
@<TRIPOS>BOND
   1    1    2 1
   2    1    7 1
   3    1   15 1
   4    2    3 1
   5    2   17 2
   6    3    4 1
   7    3   22 1
   8    3   23 1
   9    4    5 1
  10    4   12 1
  11    5    6 1
  12    5   14 2
  13    6    7 ar
  14    6    8 ar
  15    7   11 ar
  16    8    9 ar
  17    8   24 1
  18    9   10 ar
  19    9   21 1
  20   10   11 ar
  21   10   25 1
  22   11   26 1
  23   12   13 2
  24   13   14 1
  25   13   18 1
  26   15   16 2
  27   15   27 1
  28   16   17 1
  29   17   19 1
  30   18   28 1
  31   18   29 1
  32   18   30 1
  33   19   20 1
  34   19   31 1
  35   19   32 1

#	End of record

