#	Name: ASD00170764
#	Creating user name:	WinNT
#	Creation time:	15. 06. 2019 18:32

#	Modifying user name:	WinNT
#	Modification time:	15. 06. 2019 18:32

#	Program:	/corina/corina34_cracker 3.40 0067  02.08.2006

@<TRIPOS>MOLECULE
ASD00170764
  64   68    0    0    0
SMALL
NO_CHARGES


@<TRIPOS>ATOM
   1 C1             0.7144    -0.4216    -0.7620 C.3     
   2 O2            -0.4438     0.1648    -1.3593 O.3     
   3 C3            -1.6154    -0.5112    -1.2275 C.ar    
   4 C4            -2.7783     0.0038    -1.7844 C.ar    
   5 C5            -3.9690    -0.6788    -1.6526 C.ar    
   6 C6            -4.0041    -1.8894    -0.9585 C.ar    
   7 C7            -2.8326    -2.4040    -0.4004 C.ar    
   8 C8            -1.6450    -1.7178    -0.5412 C.ar    
   9 C9            -5.2786    -2.6243    -0.8143 C.2     
  10 S10           -5.5047    -4.3259    -1.1858 S.3     
  11 C11           -7.1512    -4.2644    -0.7441 C.2     
  12 C12           -7.4908    -2.9955    -0.3357 C.2     
  13 C13           -6.4267    -2.0894    -0.3760 C.2     
  14 C14           -6.5607    -0.6432     0.0261 C.3     
  15 C15           -6.1811    -0.4864     1.5000 C.3     
  16 C16           -4.7059    -0.8461     1.6877 C.3     
  17 C17           -6.4121     0.9623     1.9347 C.3     
  18 C18           -7.0456    -1.4184     2.3513 C.3     
  19 C19           -8.8394    -2.6293     0.1058 C.2     
  20 O20           -9.1869    -2.8536     1.2506 O.2     
  21 C21           -9.7781    -1.9872    -0.8397 C.ar    
  22 C22          -11.0264    -1.5465    -0.3972 C.ar    
  23 C23          -11.8978    -0.9477    -1.2838 C.ar    
  24 C24          -11.5371    -0.7836    -2.6090 C.ar    
  25 C25          -10.3003    -1.2188    -3.0553 C.ar    
  26 C26           -9.4172    -1.8142    -2.1770 C.ar    
  27 Cl27          -9.8572    -1.0093    -4.7207 Cl      
  28 N28           -8.0243    -5.3412    -0.7910 N.am    
  29 C29           -8.8296    -5.6233    -1.8310 C.2     
  30 O30           -8.9061    -4.9856    -2.8616 O.2     
  31 C31           -9.6051    -6.8396    -1.5096 C.ar    
  32 C32           -9.1901    -7.2323    -0.2206 C.ar    
  33 C33           -8.1728    -6.2440     0.1951 C.2     
  34 O34           -7.5763    -6.2430     1.2528 O.2     
  35 C35           -9.7440    -8.3575     0.3687 C.ar    
  36 C36          -10.7029    -9.0893    -0.3142 C.ar    
  37 C37          -11.1094    -8.7046    -1.5782 C.ar    
  38 C38          -10.5646    -7.5811    -2.1802 C.ar    
  39 H39            1.5787     0.2179    -0.9408 H       
  40 H40            0.5559    -0.5266     0.3113 H       
  41 H41            0.8918    -1.4034    -1.2008 H       
  42 H42           -2.7502     0.9404    -2.3213 H       
  43 H43           -4.8732    -0.2772    -2.0855 H       
  44 H44           -2.8557    -3.3401     0.1376 H       
  45 H45           -0.7382    -2.1152    -0.1098 H       
  46 H46           -5.8977    -0.0327    -0.5868 H       
  47 H47           -7.5912    -0.3195    -0.1200 H       
  48 H48           -4.0977    -0.2543     1.0036 H       
  49 H49           -4.4081    -0.6342     2.7146 H       
  50 H50           -4.5609    -1.9060     1.4786 H       
  51 H51           -7.4631     1.2185     1.8010 H       
  52 H52           -6.1417     1.0740     2.9847 H       
  53 H53           -5.7962     1.6263     1.3282 H       
  54 H54           -6.8810    -2.4504     2.0416 H       
  55 H55           -6.7752    -1.3067     3.4013 H       
  56 H56           -8.0966    -1.1621     2.2176 H       
  57 H57          -11.3098    -1.6742     0.6371 H       
  58 H58          -12.8640    -0.6068    -0.9422 H       
  59 H59          -12.2230    -0.3143    -3.2988 H       
  60 H60           -8.4528    -2.1531    -2.5256 H       
  61 H61           -9.4297    -8.6631     1.3557 H       
  62 H62          -11.1351    -9.9664     0.1443 H       
  63 H63          -11.8568    -9.2836    -2.1004 H       
  64 H64          -10.8863    -7.2852    -3.1678 H       
@<TRIPOS>BOND
   1    1    2 1
   2    1   39 1
   3    1   40 1
   4    1   41 1
   5    2    3 1
   6    3    4 ar
   7    3    8 ar
   8    4    5 ar
   9    4   42 1
  10    5    6 ar
  11    5   43 1
  12    6    7 ar
  13    6    9 1
  14    7    8 ar
  15    7   44 1
  16    8   45 1
  17    9   10 1
  18    9   13 2
  19   10   11 1
  20   11   12 2
  21   11   28 1
  22   12   13 1
  23   12   19 1
  24   13   14 1
  25   14   15 1
  26   14   46 1
  27   14   47 1
  28   15   16 1
  29   15   17 1
  30   15   18 1
  31   16   48 1
  32   16   49 1
  33   16   50 1
  34   17   51 1
  35   17   52 1
  36   17   53 1
  37   18   54 1
  38   18   55 1
  39   18   56 1
  40   19   20 2
  41   19   21 1
  42   21   22 ar
  43   21   26 ar
  44   22   23 ar
  45   22   57 1
  46   23   24 ar
  47   23   58 1
  48   24   25 ar
  49   24   59 1
  50   25   26 ar
  51   25   27 1
  52   26   60 1
  53   28   29 am
  54   28   33 am
  55   29   30 2
  56   29   31 1
  57   31   32 ar
  58   31   38 ar
  59   32   33 1
  60   32   35 ar
  61   33   34 2
  62   35   36 ar
  63   35   61 1
  64   36   37 ar
  65   36   62 1
  66   37   38 ar
  67   37   63 1
  68   38   64 1

#	End of record

