#	Name: ASD04881165
#	Creating user name:	WinNT
#	Creation time:	15. 06. 2019 20:53

#	Modifying user name:	WinNT
#	Modification time:	15. 06. 2019 20:53

#	Program:	/corina/corina34_cracker 3.40 0067  02.08.2006

@<TRIPOS>MOLECULE
ASD04881165
  80   84    0    0    0
SMALL
NO_CHARGES


@<TRIPOS>ATOM
   1 C1             0.2723     1.4197     0.2925 C.3     
   2 C2             0.2689    -0.1096     0.2181 C.3     
   3 C3             1.1253    -0.6727     1.3546 C.3     
   4 N4             2.4969    -0.1620     1.2349 N.3     
   5 C5             2.5306     1.3015     1.3508 C.3     
   6 C6             1.7161     1.9235     0.2142 C.3     
   7 C7             3.3346    -0.7564     2.1750 C.ar    
   8 C8             3.0653    -0.6164     3.5317 C.ar    
   9 C9             3.8912    -1.2027     4.4649 C.ar    
  10 C10            5.0036    -1.9403     4.0502 C.ar    
  11 C11            5.2766    -2.0827     2.6868 C.ar    
  12 C12            4.4418    -1.4979     1.7533 C.ar    
  13 N13            4.7088    -1.6429     0.3857 N.am    
  14 C14            5.9829    -1.7024    -0.0496 C.2     
  15 C15            6.2630    -1.9790    -1.4621 C.2     
  16 O16            6.9011    -1.5265     0.7298 O.2     
  17 O17            5.3431    -2.1913    -2.4258 O.3     
  18 C18            5.9639    -2.4106    -3.5923 C.2     
  19 C19            7.2988    -2.3421    -3.3940 C.2     
  20 C20            7.5005    -2.0609    -2.0337 C.2     
  21 C21            5.8886    -2.5674     5.0502 C.2     
  22 N22            5.6247    -2.4292     6.3646 N.am    
  23 O23            6.8562    -3.2090     4.6885 O.2     
  24 C24            6.5036    -3.0519     7.3576 C.3     
  25 C25            5.9838    -2.7439     8.7632 C.3     
  26 C26            6.9017    -3.3942     9.8003 C.3     
  27 N27            6.4040    -3.0993    11.1462 N.am    
  28 C28            5.4454    -3.9368    11.8766 C.3     
  29 C29            4.8963    -3.0422    13.0100 C.3     
  30 C30            6.0529    -2.0345    13.2047 C.3     
  31 C31            6.7710    -2.0298    11.8731 C.2     
  32 O32            7.5609    -1.1829    11.5128 O.2     
  33 N33           -0.4982     1.9661    -0.8274 N.pl3   
  34 C34           -0.0345     1.7656    -2.2025 C.3     
  35 C35           -1.6750     2.6780    -0.5840 C.ar    
  36 C36           -2.0554     2.9692     0.7199 C.ar    
  37 C37           -3.2193     3.6738     0.9570 C.ar    
  38 C38           -4.0057     4.0893    -0.1018 C.ar    
  39 C39           -3.6300     3.8011    -1.4011 C.ar    
  40 C40           -2.4646     3.1015    -1.6455 C.ar    
  41 C41            5.2853    -2.6886    -4.9089 C.3     
  42 H42           -0.1746     1.7397     1.2338 H       
  43 H43           -0.7528    -0.4765     0.3163 H       
  44 H44            0.6801    -0.4283    -0.7397 H       
  45 H45            0.7056    -0.3650     2.3124 H       
  46 H46            1.1366    -1.7610     1.2960 H       
  47 H47            2.1043     1.5999     2.3085 H       
  48 H48            3.5626     1.6471     1.2893 H       
  49 H49            2.1501     1.6368    -0.7437 H       
  50 H50            1.7284     3.0092     0.3095 H       
  51 H51            2.2067    -0.0463     3.8545 H       
  52 H52            3.6793    -1.0920     5.5181 H       
  53 H53            6.1354    -2.6521     2.3635 H       
  54 H54            3.9766    -1.7005    -0.2479 H       
  55 H55            8.0661    -2.4747    -4.1423 H       
  56 H56            8.4504    -1.9360    -1.5352 H       
  57 H57            4.8529    -1.9174     6.6531 H       
  58 H58            6.5182    -4.1309     7.2040 H       
  59 H59            7.5132    -2.6557     7.2486 H       
  60 H60            5.9692    -1.6648     8.9168 H       
  61 H61            4.9743    -3.1401     8.8722 H       
  62 H62            6.9163    -4.4732     9.6467 H       
  63 H63            7.9112    -2.9980     9.6913 H       
  64 H64            4.6361    -4.2478    11.2159 H       
  65 H65            5.9483    -4.8089    12.2946 H       
  66 H66            3.9841    -2.5335    12.6982 H       
  67 H67            4.7271    -3.6219    13.9174 H       
  68 H68            5.6610    -1.0435    13.4334 H       
  69 H69            6.7240    -2.3720    13.9945 H       
  70 H70           -0.4590     0.8429    -2.5982 H       
  71 H71           -0.3529     2.6059    -2.8194 H       
  72 H72            1.0534     1.6988    -2.2130 H       
  73 H73           -1.4418     2.6447     1.5473 H       
  74 H74           -3.5158     3.9002     1.9706 H       
  75 H75           -4.9156     4.6398     0.0864 H       
  76 H76           -4.2465     4.1271    -2.2257 H       
  77 H77           -2.1694     2.8806    -2.6606 H       
  78 H78            4.2044    -2.6840    -4.7686 H       
  79 H79            5.5615    -1.9189    -5.6296 H       
  80 H80            5.5993    -3.6639    -5.2806 H       
@<TRIPOS>BOND
   1    1    2 1
   2    1    6 1
   3    1   33 1
   4    1   42 1
   5    2    3 1
   6    2   43 1
   7    2   44 1
   8    3    4 1
   9    3   45 1
  10    3   46 1
  11    4    5 1
  12    4    7 1
  13    5    6 1
  14    5   47 1
  15    5   48 1
  16    6   49 1
  17    6   50 1
  18    7    8 ar
  19    7   12 ar
  20    8    9 ar
  21    8   51 1
  22    9   10 ar
  23    9   52 1
  24   10   11 ar
  25   10   21 1
  26   11   12 ar
  27   11   53 1
  28   12   13 1
  29   13   14 am
  30   13   54 1
  31   14   15 1
  32   14   16 2
  33   15   17 1
  34   15   20 2
  35   17   18 1
  36   18   19 2
  37   18   41 1
  38   19   20 1
  39   19   55 1
  40   20   56 1
  41   21   22 am
  42   21   23 2
  43   22   24 1
  44   22   57 1
  45   24   25 1
  46   24   58 1
  47   24   59 1
  48   25   26 1
  49   25   60 1
  50   25   61 1
  51   26   27 1
  52   26   62 1
  53   26   63 1
  54   27   28 1
  55   27   31 am
  56   28   29 1
  57   28   64 1
  58   28   65 1
  59   29   30 1
  60   29   66 1
  61   29   67 1
  62   30   31 1
  63   30   68 1
  64   30   69 1
  65   31   32 2
  66   33   34 1
  67   33   35 1
  68   34   70 1
  69   34   71 1
  70   34   72 1
  71   35   36 ar
  72   35   40 ar
  73   36   37 ar
  74   36   73 1
  75   37   38 ar
  76   37   74 1
  77   38   39 ar
  78   38   75 1
  79   39   40 ar
  80   39   76 1
  81   40   77 1
  82   41   78 1
  83   41   79 1
  84   41   80 1

#	End of record

