#	Name: ASD01208866
#	Creating user name:	WinNT
#	Creation time:	15. 06. 2019 19:10

#	Modifying user name:	WinNT
#	Modification time:	15. 06. 2019 19:10

#	Program:	/corina/corina34_cracker 3.40 0067  02.08.2006

@<TRIPOS>MOLECULE
ASD01208866
  45   47    0    0    0
SMALL
NO_CHARGES


@<TRIPOS>ATOM
   1 C1            -0.1500     0.8517     2.3576 C.2     
   2 C2            -0.0897    -0.4365     1.6365 C.ar    
   3 C3             1.1381    -1.0694     1.4353 C.ar    
   4 C4             1.1900    -2.2766     0.7589 C.ar    
   5 C5             0.0239    -2.8570     0.2808 C.ar    
   6 C6            -1.1987    -2.2314     0.4780 C.ar    
   7 C7            -1.2607    -1.0268     1.1595 C.ar    
   8 O8             0.8699     1.3615     2.7764 O.2     
   9 O9            -1.3353     1.4635     2.5458 O.3     
  10 O10           -2.3376    -2.8039     0.0069 O.3     
  11 C11           -3.4961    -2.1084     0.1257 C.ar    
  12 C12           -3.8830    -1.2290    -0.8803 C.ar    
  13 C13           -5.0531    -0.5237    -0.7651 C.ar    
  14 C14           -5.8592    -0.6898     0.3680 C.ar    
  15 C15           -5.4653    -1.5764     1.3780 C.ar    
  16 C16           -4.2961    -2.2813     1.2505 C.ar    
  17 C17           -7.1133     0.0634     0.4968 C.2     
  18 O18           -7.8100    -0.0820     1.4790 O.2     
  19 O19            2.3849    -2.8935     0.5625 O.3     
  20 C20            2.3654    -4.1361    -0.1430 C.3     
  21 C21            3.7704    -4.6673    -0.2640 C.ar    
  22 C22            4.2825    -5.4968     0.7161 C.ar    
  23 C23            5.5714    -5.9840     0.6052 C.ar    
  24 C24            6.3480    -5.6421    -0.4860 C.ar    
  25 C25            5.8357    -4.8132    -1.4665 C.ar    
  26 C26            4.5453    -4.3295    -1.3578 C.ar    
  27 C27           -1.3190     2.7261     3.2627 C.3     
  28 H28            2.0464    -0.6180     1.8065 H       
  29 H29            0.0681    -3.7984    -0.2466 H       
  30 H30           -2.2133    -0.5427     1.3168 H       
  31 H31           -3.2604    -1.1014    -1.7535 H       
  32 H32           -5.3523     0.1591    -1.5465 H       
  33 H33           -6.0835    -1.7080     2.2537 H       
  34 H34           -3.9938    -2.9688     2.0265 H       
  35 H35           -7.4152     0.7469    -0.2830 H       
  36 H36            1.7513    -4.8534     0.4014 H       
  37 H37            1.9482    -3.9822    -1.1382 H       
  38 H38            3.6757    -5.7640     1.5686 H       
  39 H39            5.9716    -6.6316     1.3712 H       
  40 H40            7.3553    -6.0221    -0.5723 H       
  41 H41            6.4426    -4.5458    -2.3189 H       
  42 H42            4.1437    -3.6849    -2.1257 H       
  43 H43           -0.9072     2.5723     4.2601 H       
  44 H44           -0.7019     3.4433     2.7214 H       
  45 H45           -2.3356     3.1105     3.3446 H       
@<TRIPOS>BOND
   1    1    2 1
   2    1    8 2
   3    1    9 1
   4    2    3 ar
   5    2    7 ar
   6    3    4 ar
   7    3   28 1
   8    4    5 ar
   9    4   19 1
  10    5    6 ar
  11    5   29 1
  12    6    7 ar
  13    6   10 1
  14    7   30 1
  15    9   27 1
  16   10   11 1
  17   11   12 ar
  18   11   16 ar
  19   12   13 ar
  20   12   31 1
  21   13   14 ar
  22   13   32 1
  23   14   15 ar
  24   14   17 1
  25   15   16 ar
  26   15   33 1
  27   16   34 1
  28   17   18 2
  29   17   35 1
  30   19   20 1
  31   20   21 1
  32   20   36 1
  33   20   37 1
  34   21   22 ar
  35   21   26 ar
  36   22   23 ar
  37   22   38 1
  38   23   24 ar
  39   23   39 1
  40   24   25 ar
  41   24   40 1
  42   25   26 ar
  43   25   41 1
  44   26   42 1
  45   27   43 1
  46   27   44 1
  47   27   45 1

#	End of record

