#	Name: ASD00111050
#	Creating user name:	WinNT
#	Creation time:	15. 06. 2019 18:30

#	Modifying user name:	WinNT
#	Modification time:	15. 06. 2019 18:30

#	Program:	/corina/corina34_cracker 3.40 0067  02.08.2006

@<TRIPOS>MOLECULE
ASD00111050
  37   38    0    0    0
SMALL
NO_CHARGES


@<TRIPOS>ATOM
   1 C1            -0.0899     1.5279    -0.0867 C.ar    
   2 C2            -0.4013     0.4283     0.6995 C.ar    
   3 C3            -1.6618    -0.1482     0.6173 C.ar    
   4 C4            -2.5981     0.3805    -0.2501 C.ar    
   5 C5            -2.2874     1.4699    -1.0276 C.ar    
   6 C6            -1.0362     2.0532    -0.9471 C.ar    
   7 C7            -3.9740    -0.2460    -0.3443 C.3     
   8 C8            -4.9891     0.7295     0.2597 C.3     
   9 N9            -5.4166     1.7081    -0.7267 N.3     
  10 C10           -4.4300     2.6930    -1.1391 C.3     
  11 C11           -3.3234     2.0403    -1.9744 C.3     
  12 C12           -2.6734     3.0891    -2.8790 C.3     
  13 C13            1.2781     2.1539     0.0014 C.3     
  14 F14            2.2477     1.1478     0.0709 F       
  15 F15            1.5042     2.9420    -1.1321 F       
  16 O16            0.5269    -0.0846     1.5493 O.3     
  17 C17            0.1374    -1.2175     2.3284 C.3     
  18 C18            1.3592     3.0278     1.2547 C.3     
  19 F19            1.1925     2.2296     2.3914 F       
  20 F20            2.6082     3.6560     1.3050 F       
  21 F21            0.3511     3.9970     1.2135 F       
  22 H22           -1.9085    -1.0046     1.2273 H       
  23 H23           -0.7961     2.9091    -1.5605 H       
  24 H24           -4.2215    -0.4336    -1.3891 H       
  25 H25           -3.9897    -1.1835     0.2116 H       
  26 H26           -5.8572     0.1717     0.6109 H       
  27 H27           -4.5312     1.2468     1.1028 H       
  28 H28           -5.8330     1.2564    -1.5272 H       
  29 H29           -4.9201     3.4641    -1.7334 H       
  30 H30           -3.9885     3.1505    -0.2537 H       
  31 H31           -3.7456     1.2404    -2.5827 H       
  32 H32           -2.2437     3.8815    -2.2662 H       
  33 H33           -1.8871     2.6210    -3.4713 H       
  34 H34           -3.4263     3.5120    -3.5442 H       
  35 H35            0.9689    -1.5257     2.9622 H       
  36 H36           -0.7165    -0.9532     2.9522 H       
  37 H37           -0.1372    -2.0376     1.6650 H       
@<TRIPOS>BOND
   1    1    2 ar
   2    1   13 1
   3    1    6 ar
   4    2    3 ar
   5    2   16 1
   6    3    4 ar
   7    3   22 1
   8    4    5 ar
   9    4    7 1
  10    5    6 ar
  11    5   11 1
  12    6   23 1
  13    7    8 1
  14    7   24 1
  15    7   25 1
  16    8    9 1
  17    8   26 1
  18    8   27 1
  19    9   10 1
  20    9   28 1
  21   10   11 1
  22   10   29 1
  23   10   30 1
  24   11   12 1
  25   11   31 1
  26   12   32 1
  27   12   33 1
  28   12   34 1
  29   13   14 1
  30   13   15 1
  31   13   18 1
  32   16   17 1
  33   17   35 1
  34   17   36 1
  35   17   37 1
  36   18   19 1
  37   18   20 1
  38   18   21 1

#	End of record

