#	Name: ASD01840001
#	Creating user name:	WinNT
#	Creation time:	15. 06. 2019 19:37

#	Modifying user name:	WinNT
#	Modification time:	15. 06. 2019 19:37

#	Program:	/corina/corina34_cracker 3.40 0067  02.08.2006

@<TRIPOS>MOLECULE
ASD01840001
  22   22    0    0    0
SMALL
NO_CHARGES


@<TRIPOS>ATOM
   1 C1             0.1199     1.5216    -0.1824 C.2     
   2 C2             0.3673     0.0857    -0.4327 C.ar    
   3 C3            -0.6339    -0.7239    -0.9829 C.ar    
   4 C4            -0.3514    -2.0612    -1.1979 C.ar    
   5 C5             0.8990    -2.5510    -0.8655 C.ar    
   6 N6             1.8232    -1.7644    -0.3483 N.ar    
   7 C7             1.6043    -0.4843    -0.1300 C.ar    
   8 O8             1.0547     2.2762     0.0024 O.2     
   9 N9            -1.1419     1.9949    -0.1646 N.am    
  10 C10           -1.3922     3.4013     0.1603 C.3     
  11 O11           -2.2257     1.1328    -0.4600 O.3     
  12 C12           -2.8501     0.5676     0.6945 C.3     
  13 H13           -1.6018    -0.3151    -1.2328 H       
  14 H14           -1.0994    -2.7158    -1.6203 H       
  15 H15            1.1221    -3.5946    -1.0319 H       
  16 H16            2.3875     0.1286     0.2911 H       
  17 H17           -1.3769     3.9938    -0.7545 H       
  18 H18           -2.3673     3.4959     0.6381 H       
  19 H19           -0.6186     3.7607     0.8389 H       
  20 H20           -2.1188    -0.0152     1.2545 H       
  21 H21           -3.2379     1.3671     1.3258 H       
  22 H22           -3.6699    -0.0800     0.3837 H       
@<TRIPOS>BOND
   1    1    2 1
   2    1    8 2
   3    1    9 am
   4    2    3 ar
   5    2    7 ar
   6    3    4 ar
   7    3   13 1
   8    4    5 ar
   9    4   14 1
  10    5    6 ar
  11    5   15 1
  12    6    7 ar
  13    7   16 1
  14    9   10 1
  15    9   11 1
  16   10   17 1
  17   10   18 1
  18   10   19 1
  19   11   12 1
  20   12   20 1
  21   12   21 1
  22   12   22 1

#	End of record

