#	Name: ASD02030741
#	Creating user name:	WinNT
#	Creation time:	15. 06. 2019 20:16

#	Modifying user name:	WinNT
#	Modification time:	15. 06. 2019 20:16

#	Program:	/corina/corina34_cracker 3.40 0067  02.08.2006

@<TRIPOS>MOLECULE
ASD02030741
  37   39    0    0    0
SMALL
NO_CHARGES


@<TRIPOS>ATOM
   1 N1            -0.0169     1.3957     0.0097 N.2     
   2 N2             0.0021    -0.0041     0.0020 N.am    
   3 C3             1.1646    -0.6797    -0.0123 C.2     
   4 N4             2.3448    -0.0325    -0.0200 N.am    
   5 C5             2.3757     1.3164    -0.0131 C.2     
   6 C6             1.1074     2.0610     0.0026 C.2     
   7 O7             1.1494    -1.8958    -0.0178 O.2     
   8 O8             3.4386     1.9089    -0.0192 O.2     
   9 O9             1.1051     3.4197     0.0094 O.3     
  10 C10           -1.2627    -0.7434     0.0101 C.3     
  11 C11           -1.6892    -1.0085     1.4554 C.3     
  12 C12           -2.7851    -3.0921     0.8988 C.3     
  13 N13           -2.9574    -1.7498     1.4635 N.3     
  14 C14           -3.5085    -1.8372     2.8252 C.3     
  15 C15           -4.9695    -2.2779     2.7300 C.3     
  16 C16           -5.0821    -3.5008     1.8563 C.ar    
  17 C17           -6.2430    -4.2564     1.9225 C.ar    
  18 C18           -6.3881    -5.3822     1.1371 C.ar    
  19 C19           -5.3710    -5.7582     0.2794 C.ar    
  20 C20           -4.2149    -5.0073     0.2133 C.ar    
  21 C21           -4.0667    -3.8765     1.0033 C.ar    
  22 H22            3.1737    -0.5362    -0.0303 H       
  23 H23            0.2211     3.8114     0.0197 H       
  24 H24           -2.0303    -0.1556    -0.4933 H       
  25 H25           -1.1322    -1.6923    -0.5101 H       
  26 H26           -0.9215    -1.5962     1.9587 H       
  27 H27           -1.8197    -0.0596     1.9756 H       
  28 H28           -2.4987    -3.0078    -0.1495 H       
  29 H29           -1.9980    -3.6137     1.4433 H       
  30 H30           -2.9425    -2.5678     3.4032 H       
  31 H31           -3.4510    -0.8611     3.3069 H       
  32 H32           -5.3431    -2.5101     3.7273 H       
  33 H33           -5.5636    -1.4709     2.3014 H       
  34 H34           -7.0377    -3.9626     2.5923 H       
  35 H35           -7.2937    -5.9681     1.1928 H       
  36 H36           -5.4808    -6.6379    -0.3374 H       
  37 H37           -3.4209    -5.3019    -0.4568 H       
@<TRIPOS>BOND
   1    1    2 1
   2    1    6 2
   3    2    3 am
   4    2   10 1
   5    3    4 am
   6    3    7 2
   7    4    5 am
   8    4   22 1
   9    5    6 1
  10    5    8 2
  11    6    9 1
  12    9   23 1
  13   10   11 1
  14   10   24 1
  15   10   25 1
  16   11   13 1
  17   11   26 1
  18   11   27 1
  19   12   13 1
  20   12   21 1
  21   12   28 1
  22   12   29 1
  23   13   14 1
  24   14   15 1
  25   14   30 1
  26   14   31 1
  27   15   16 1
  28   15   32 1
  29   15   33 1
  30   16   17 ar
  31   16   21 ar
  32   17   18 ar
  33   17   34 1
  34   18   19 ar
  35   18   35 1
  36   19   20 ar
  37   19   36 1
  38   20   21 ar
  39   20   37 1

#	End of record

