#	Name: ASD03091614
#	Creating user name:	WinNT
#	Creation time:	15. 06. 2019 20:31

#	Modifying user name:	WinNT
#	Modification time:	15. 06. 2019 20:31

#	Program:	/corina/corina34_cracker 3.40 0067  02.08.2006

@<TRIPOS>MOLECULE
ASD03091614
  60   63    0    0    0
SMALL
NO_CHARGES


@<TRIPOS>ATOM
   1 C1            -0.0652     1.3763    -0.2018 C.2     
   2 C2             0.0351     0.0524     0.0401 C.2     
   3 N3            -1.1164    -0.5494     0.2450 N.2     
   4 C4            -2.1858     0.1864     0.1910 C.2     
   5 S5            -1.7713     1.8114    -0.1406 S.3     
   6 N6            -3.4748    -0.2775     0.3808 N.3     
   7 C7            -4.4516     0.8136     0.2524 C.3     
   8 C8            -3.7855    -1.3677    -0.5553 C.3     
   9 C9            -5.1963    -1.8902    -0.2715 C.3     
  10 O10           -6.1281    -0.8098    -0.3701 O.3     
  11 C11           -5.8558     0.2692     0.5281 C.3     
  12 C12           -6.8853     1.3814     0.3178 C.3     
  13 C13           -5.5563    -2.9703    -1.2935 C.3     
  14 C14            1.0569     2.2982    -0.4648 C.ar    
  15 C15            1.0150     3.1956    -1.5402 C.ar    
  16 C16            2.1917     2.3047     0.3575 C.ar    
  17 C17            3.2157     3.1826     0.0753 C.ar    
  18 N18            3.1372     4.0087    -0.9516 N.ar    
  19 C19            2.0850     4.0387    -1.7484 C.ar    
  20 C20            1.3546    -0.6748     0.0726 C.3     
  21 C21            4.4418     3.2004     0.9512 C.3     
  22 N22            1.8272    -0.7674     1.4562 N.am    
  23 C23            2.9954    -1.3814     1.7296 C.2     
  24 C24            3.4815    -1.4766     3.1528 C.3     
  25 O25            3.6554    -1.8572     0.8302 O.2     
  26 C26            2.0558     5.0047    -2.9047 C.3     
  27 C27            2.4824    -2.2759     4.0117 C.3     
  28 O28            3.1617    -3.4570     4.4695 O.3     
  29 C29            4.5709    -3.1449     4.5072 C.3     
  30 C30            4.7891    -2.3023     3.2247 C.3     
  31 H31           -4.2177     1.5982     0.9720 H       
  32 H32           -4.4112     1.2214    -0.7576 H       
  33 H33           -3.7344    -0.9948    -1.5782 H       
  34 H34           -3.0652    -2.1755    -0.4252 H       
  35 H35           -5.2330    -2.3120     0.7330 H       
  36 H36           -5.9117    -0.0897     1.5558 H       
  37 H37           -7.8850     0.9922     0.5105 H       
  38 H38           -6.6771     2.2034     1.0026 H       
  39 H39           -6.8271     1.7408    -0.7096 H       
  40 H40           -4.8435    -3.7917    -1.2205 H       
  41 H41           -6.5608    -3.3419    -1.0910 H       
  42 H42           -5.5211    -2.5469    -2.2973 H       
  43 H43            0.1575     3.2257    -2.1961 H       
  44 H44            2.2624     1.6323     1.1996 H       
  45 H45            1.2270    -1.6774    -0.3357 H       
  46 H46            2.0849    -0.1294    -0.5251 H       
  47 H47            5.1777     2.4977     0.5604 H       
  48 H48            4.8671     4.2040     0.9607 H       
  49 H49            4.1676     2.9124     1.9661 H       
  50 H50            1.2993    -0.3869     2.1755 H       
  51 H51            3.6330    -0.4814     3.5707 H       
  52 H52            2.4851     4.5289    -3.7865 H       
  53 H53            1.0251     5.2919    -3.1124 H       
  54 H54            2.6363     5.8919    -2.6517 H       
  55 H55            2.1650    -1.6766     4.8651 H       
  56 H56            1.6174    -2.5554     3.4103 H       
  57 H57            4.8111    -2.5609     5.3956 H       
  58 H58            5.1670    -4.0569     4.4734 H       
  59 H59            4.8920    -2.9447     2.3501 H       
  60 H60            5.6558    -1.6499     3.3307 H       
@<TRIPOS>BOND
   1    1    2 2
   2    1   14 1
   3    1    5 1
   4    2    3 1
   5    2   20 1
   6    3    4 2
   7    4    5 1
   8    4    6 1
   9    6    7 1
  10    6    8 1
  11    7   11 1
  12    7   31 1
  13    7   32 1
  14    8    9 1
  15    8   33 1
  16    8   34 1
  17    9   10 1
  18    9   13 1
  19    9   35 1
  20   10   11 1
  21   11   12 1
  22   11   36 1
  23   12   37 1
  24   12   38 1
  25   12   39 1
  26   13   40 1
  27   13   41 1
  28   13   42 1
  29   14   15 ar
  30   14   16 ar
  31   15   19 ar
  32   15   43 1
  33   16   17 ar
  34   16   44 1
  35   17   18 ar
  36   17   21 1
  37   18   19 ar
  38   19   26 1
  39   20   22 1
  40   20   45 1
  41   20   46 1
  42   21   47 1
  43   21   48 1
  44   21   49 1
  45   22   23 am
  46   22   50 1
  47   23   24 1
  48   23   25 2
  49   24   27 1
  50   24   30 1
  51   24   51 1
  52   26   52 1
  53   26   53 1
  54   26   54 1
  55   27   28 1
  56   27   55 1
  57   27   56 1
  58   28   29 1
  59   29   30 1
  60   29   57 1
  61   29   58 1
  62   30   59 1
  63   30   60 1

#	End of record

