#	Name: ASD01140122
#	Creating user name:	WinNT
#	Creation time:	15. 06. 2019 19:00

#	Modifying user name:	WinNT
#	Modification time:	15. 06. 2019 19:00

#	Program:	/corina/corina34_cracker 3.40 0067  02.08.2006

@<TRIPOS>MOLECULE
ASD01140122
  21   20    0    0    0
SMALL
NO_CHARGES


@<TRIPOS>ATOM
   1 C1            -0.0187     1.5258     0.0104 C.3     
   2 C2             0.0021    -0.0041     0.0020 C.3     
   3 O3             0.7043    -0.4851     1.1784 O.3     
   4 C4             0.8120    -1.8180     1.3228 C.2     
   5 O5             1.4519    -2.3305     2.3926 O.3     
   6 C6             1.5242    -3.6737     2.4769 C.2     
   7 O7             2.1492    -4.2495     3.5196 O.3     
   8 C8             2.1886    -5.7007     3.5449 C.3     
   9 C9             2.9347    -6.1689     4.7960 C.3     
  10 O10            0.3327    -2.5596     0.4895 O.2     
  11 O11            1.0253    -4.3639     1.6117 O.2     
  12 H12            1.0039     1.9031     0.0027 H       
  13 H13           -0.5459     1.8868    -0.8726 H       
  14 H14           -0.5289     1.8773     0.9072 H       
  15 H15           -1.0205    -0.3814     0.0098 H       
  16 H16            0.5123    -0.3556    -0.8948 H       
  17 H17            1.1712    -6.0916     3.5611 H       
  18 H18            2.7040    -6.0658     2.6566 H       
  19 H19            3.9521    -5.7780     4.7798 H       
  20 H20            2.4193    -5.8038     5.6843 H       
  21 H21            2.9643    -7.2583     4.8150 H       
@<TRIPOS>BOND
   1    1    2 1
   2    1   12 1
   3    1   13 1
   4    1   14 1
   5    2    3 1
   6    2   15 1
   7    2   16 1
   8    3    4 1
   9    4    5 1
  10    4   10 2
  11    5    6 1
  12    6    7 1
  13    6   11 2
  14    7    8 1
  15    8    9 1
  16    8   17 1
  17    8   18 1
  18    9   19 1
  19    9   20 1
  20    9   21 1

#	End of record

