#	Name: ASD02508145
#	Creating user name:	WinNT
#	Creation time:	15. 06. 2019 20:23

#	Modifying user name:	WinNT
#	Modification time:	15. 06. 2019 20:23

#	Program:	/corina/corina34_cracker 3.40 0067  02.08.2006

@<TRIPOS>MOLECULE
ASD02508145
  39   41    0    0    0
SMALL
NO_CHARGES


@<TRIPOS>ATOM
   1 C1             0.4368     1.9354     0.0140 C.ar    
   2 C2             0.2545     0.5655     0.1197 C.ar    
   3 C3             1.7224     2.4610    -0.1125 C.ar    
   4 C4             2.8152     1.6086    -0.1316 C.ar    
   5 C5             2.6271     0.2444    -0.0255 C.ar    
   6 C6             1.3500    -0.2773     0.0993 C.ar    
   7 N7            -0.4404     3.0194    -0.0030 N.am    
   8 C8             0.3005     4.1383    -0.1284 C.2     
   9 O9             1.5999     3.8087    -0.1955 O.3     
  10 S10            4.0177    -0.8373    -0.0506 S.o2    
  11 N11            4.1127    -1.5484     1.4419 N.am    
  12 C12            4.3506    -0.7661     2.5743 C.ar    
  13 O13           -0.1403     5.2705    -0.1777 O.2     
  14 C14           -1.9005     2.9539     0.0964 C.3     
  15 O15            3.7030    -1.8743    -0.9698 O.2     
  16 O16            5.1669    -0.0107    -0.1752 O.2     
  17 C17            3.5812    -0.9436     3.7172 C.ar    
  18 C18            5.3608     0.1873     2.5621 C.ar    
  19 C19            5.5933     0.9592     3.6835 C.ar    
  20 C20            4.8221     0.7835     4.8178 C.ar    
  21 C21            3.8191    -0.1684     4.8351 C.ar    
  22 Cl22           1.1249    -1.9935     0.2323 Cl      
  23 C23            2.9812    -0.3563     6.0735 C.3     
  24 C24            6.6890     1.9937     3.6711 C.3     
  25 H25           -0.7407     0.1576     0.2180 H       
  26 H26            3.8128     2.0106    -0.2297 H       
  27 H27            4.0032    -2.5081     1.5298 H       
  28 H28           -2.1962     3.0076     1.1442 H       
  29 H29           -2.3397     3.7897    -0.4482 H       
  30 H30           -2.2522     2.0157    -0.3327 H       
  31 H31            2.7977    -1.6868     3.7314 H       
  32 H32            5.9640     0.3246     1.6768 H       
  33 H33            5.0065     1.3879     5.6936 H       
  34 H34            2.1101     0.2971     6.0254 H       
  35 H35            2.6538    -1.3941     6.1367 H       
  36 H36            3.5735    -0.1079     6.9541 H       
  37 H37            6.2866     2.9451     3.3232 H       
  38 H38            7.0864     2.1141     4.6790 H       
  39 H39            7.4866     1.6703     3.0023 H       
@<TRIPOS>BOND
   1    1    2 ar
   2    1    3 ar
   3    1    7 1
   4    2    6 ar
   5    2   25 1
   6    3    4 ar
   7    3    9 1
   8    4    5 ar
   9    4   26 1
  10    5    6 ar
  11    5   10 1
  12    6   22 1
  13    7    8 am
  14    7   14 1
  15    8    9 1
  16    8   13 2
  17   10   11 am
  18   10   15 2
  19   10   16 2
  20   11   12 1
  21   11   27 1
  22   12   17 ar
  23   12   18 ar
  24   14   28 1
  25   14   29 1
  26   14   30 1
  27   17   21 ar
  28   17   31 1
  29   18   19 ar
  30   18   32 1
  31   19   20 ar
  32   19   24 1
  33   20   21 ar
  34   20   33 1
  35   21   23 1
  36   23   34 1
  37   23   35 1
  38   23   36 1
  39   24   37 1
  40   24   38 1
  41   24   39 1

#	End of record

