#	Name: ASD03430521
#	Creating user name:	WinNT
#	Creation time:	15. 06. 2019 20:41

#	Modifying user name:	WinNT
#	Modification time:	15. 06. 2019 20:41

#	Program:	/corina/corina34_cracker 3.40 0067  02.08.2006

@<TRIPOS>MOLECULE
ASD03430521
  55   60    0    0    0
SMALL
NO_CHARGES


@<TRIPOS>ATOM
   1 N1            -0.0178     1.4650     0.0101 N.am    
   2 C2             0.0021    -0.0041     0.0020 C.3     
   3 C3             0.8580    -0.4791    -1.1763 C.3     
   4 C4             2.2423     0.1678    -1.0896 C.3     
   5 C5             2.1025     1.6893    -1.1766 C.3     
   6 C6             1.2607     2.1889     0.0018 C.3     
   7 C7            -1.1868     2.1359     0.0193 C.2     
   8 O8            -2.2444     1.5216     0.0210 O.co2   
   9 O9            -1.1899     3.3590     0.0260 O.co2   
  10 C10            1.0015    -2.0014    -1.1223 C.3     
  11 C11           -0.3684    -2.6504    -1.3299 C.3     
  12 O12            4.4123    -7.0852     1.6982 O.3     
  13 C13            4.8970    -8.3949     2.0483 C.3     
  14 O14            3.7028    -9.1204     2.3954 O.3     
  15 C15            2.6960    -8.5271     1.6889 C.ar    
  16 C16            3.1325    -7.2752     1.2613 C.ar    
  17 C17            1.4219    -8.9614     1.3700 C.ar    
  18 C18            0.5680    -8.1545     0.6240 C.ar    
  19 C19            1.0125    -6.9026     0.2096 C.ar    
  20 C20            2.2844    -6.4692     0.5207 C.ar    
  21 O21           -0.7032    -8.3953     0.1922 O.3     
  22 C22           -0.1289    -6.2687    -0.5396 C.3     
  23 C23           -1.3293    -7.1469    -0.1612 C.3     
  24 N24           -0.2310    -4.1081    -1.2782 N.am    
  25 C25           -0.3389    -4.8344    -0.1478 C.2     
  26 C26            0.1031    -6.2464    -2.0213 C.ar    
  27 C27            0.3506    -7.2228    -2.9603 C.ar    
  28 C28            0.5244    -6.8782    -4.2889 C.ar    
  29 C29            0.4496    -5.5512    -4.6713 C.ar    
  30 C30            0.2028    -4.5695    -3.7344 C.ar    
  31 C31            0.0262    -4.9072    -2.3948 C.ar    
  32 O32           -0.5621    -4.4123     0.9671 O.2     
  33 H33            0.4307    -0.3688     0.9355 H       
  34 H34           -1.0141    -0.3827    -0.1084 H       
  35 H35            0.3799    -0.1912    -2.1126 H       
  36 H36            2.7097    -0.1004    -0.1422 H       
  37 H37            2.8614    -0.1876    -1.9133 H       
  38 H38            3.0905     2.1482    -1.1383 H       
  39 H39            1.6127     1.9568    -2.1129 H       
  40 H40            1.0750     3.2573    -0.1088 H       
  41 H41            1.7919     2.0030     0.9352 H       
  42 H42            1.6821    -2.3303    -1.9076 H       
  43 H43            1.3990    -2.2946    -0.1507 H       
  44 H44           -1.0490    -2.3215    -0.5447 H       
  45 H45           -0.7659    -2.3572    -2.3016 H       
  46 H46            5.3935    -8.8598     1.1965 H       
  47 H47            5.5722    -8.3378     2.9021 H       
  48 H48            1.0876    -9.9332     1.7021 H       
  49 H49            2.6195    -5.4986     0.1862 H       
  50 H50           -1.9979    -7.2764    -1.0123 H       
  51 H51           -1.8630    -6.7266     0.6913 H       
  52 H52            0.4089    -8.2584    -2.6594 H       
  53 H53            0.7177    -7.6438    -5.0258 H       
  54 H54            0.5854    -5.2822    -5.7085 H       
  55 H55            0.1463    -3.5354    -4.0406 H       
@<TRIPOS>BOND
   1    1    2 1
   2    1    6 1
   3    1    7 am
   4    2    3 1
   5    2   33 1
   6    2   34 1
   7    3    4 1
   8    3   10 1
   9    3   35 1
  10    4    5 1
  11    4   36 1
  12    4   37 1
  13    5    6 1
  14    5   38 1
  15    5   39 1
  16    6   40 1
  17    6   41 1
  18    7    8 ar
  19    7    9 ar
  20   10   11 1
  21   10   42 1
  22   10   43 1
  23   11   24 1
  24   11   44 1
  25   11   45 1
  26   12   13 1
  27   12   16 1
  28   13   14 1
  29   13   46 1
  30   13   47 1
  31   14   15 1
  32   15   16 ar
  33   15   17 ar
  34   16   20 ar
  35   17   18 ar
  36   17   48 1
  37   18   19 ar
  38   18   21 1
  39   19   20 ar
  40   19   22 1
  41   20   49 1
  42   21   23 1
  43   22   23 1
  44   22   25 1
  45   22   26 1
  46   23   50 1
  47   23   51 1
  48   24   25 am
  49   24   31 1
  50   25   32 2
  51   26   27 ar
  52   26   31 ar
  53   27   28 ar
  54   27   52 1
  55   28   29 ar
  56   28   53 1
  57   29   30 ar
  58   29   54 1
  59   30   31 ar
  60   30   55 1

#	End of record

