#	Name: ASD01150721
#	Creating user name:	WinNT
#	Creation time:	15. 06. 2019 19:04

#	Modifying user name:	WinNT
#	Modification time:	15. 06. 2019 19:04

#	Program:	/corina/corina34_cracker 3.40 0067  02.08.2006

@<TRIPOS>MOLECULE
ASD01150721
  29   31    0    0    0
SMALL
NO_CHARGES


@<TRIPOS>ATOM
   1 C1            -0.0411     1.1928     0.0129 C.2     
   2 O2             0.6600     1.2292    -0.9805 O.2     
   3 C3             0.3998     0.4318     1.2013 C.ar    
   4 C4             1.5632    -0.3385     1.1488 C.ar    
   5 C5             1.9689    -1.0461     2.2612 C.ar    
   6 C6             1.2255    -0.9941     3.4271 C.ar    
   7 C7             0.0715    -0.2327     3.4860 C.ar    
   8 C8            -0.3422     0.4848     2.3829 C.ar    
   9 O9            -4.7871     4.1525     0.1207 O.3     
  10 C10           -4.2015     5.4423    -0.1358 C.3     
  11 O11           -2.8449     5.3020     0.3252 O.3     
  12 C12           -2.5531     3.9730     0.1988 C.ar    
  13 C13           -3.7529     3.2651     0.0725 C.ar    
  14 C14           -1.3490     3.3037     0.1803 C.ar    
  15 C15           -1.3241     1.9106     0.0341 C.ar    
  16 C16           -2.5317     1.2024    -0.0929 C.ar    
  17 C17           -3.7372     1.8874    -0.0720 C.ar    
  18 F18           -4.2280     5.7304    -1.5045 F       
  19 F19           -4.8665     6.4366     0.5897 F       
  20 N20           -2.5175    -0.1798    -0.2393 N.pl3   
  21 H21            2.1439    -0.3805     0.2392 H       
  22 H22            2.8685    -1.6423     2.2219 H       
  23 H23            1.5472    -1.5506     4.2950 H       
  24 H24           -0.5041    -0.1965     4.3992 H       
  25 H25           -1.2405     1.0822     2.4316 H       
  26 H26           -0.4243     3.8529     0.2786 H       
  27 H27           -4.6664     1.3454    -0.1689 H       
  28 H28           -1.6734    -0.6494    -0.3289 H       
  29 H29           -3.3515    -0.6749    -0.2519 H       
@<TRIPOS>BOND
   1    1    2 2
   2    1    3 1
   3    1   15 1
   4    3    4 ar
   5    3    8 ar
   6    4    5 ar
   7    4   21 1
   8    5    6 ar
   9    5   22 1
  10    6    7 ar
  11    6   23 1
  12    7    8 ar
  13    7   24 1
  14    8   25 1
  15    9   10 1
  16    9   13 1
  17   10   11 1
  18   10   18 1
  19   10   19 1
  20   11   12 1
  21   12   13 ar
  22   12   14 ar
  23   13   17 ar
  24   14   15 ar
  25   14   26 1
  26   15   16 ar
  27   16   17 ar
  28   16   20 1
  29   17   27 1
  30   20   28 1
  31   20   29 1

#	End of record

