#	Name: ASD01410449
#	Creating user name:	WinNT
#	Creation time:	15. 06. 2019 19:17

#	Modifying user name:	WinNT
#	Modification time:	15. 06. 2019 19:17

#	Program:	/corina/corina34_cracker 3.40 0067  02.08.2006

@<TRIPOS>MOLECULE
ASD01410449
  60   62    0    0    0
SMALL
NO_CHARGES


@<TRIPOS>ATOM
   1 C1             1.1712     3.8021     0.1812 C.ar    
   2 C2             1.5414     3.7306    -1.1545 C.ar    
   3 C3             2.6815     3.0336    -1.5033 C.ar    
   4 N4             3.4179     2.4386    -0.5846 N.ar    
   5 C5             3.0978     2.4842     0.6983 C.ar    
   6 C6             1.9647     3.1673     1.1211 C.ar    
   7 C7             1.6043     3.2170     2.5835 C.3     
   8 F8             0.4300     3.9591     2.7494 F       
   9 F9             1.4051     1.9165     3.0591 F       
  10 F10            2.6431     3.8215     3.2995 F       
  11 C11            4.9257    -0.2629     1.3262 C.ar    
  12 C12            4.9265     1.1157     1.1505 C.ar    
  13 O13            3.8838     1.8579     1.6096 O.3     
  14 C14            5.9792    -1.0257     0.8645 C.ar    
  15 C15            7.0486    -0.4195     0.2202 C.ar    
  16 C16            7.0555     0.9720     0.0395 C.ar    
  17 C17            5.9845     1.7352     0.5105 C.ar    
  18 C18            8.1870     1.6250    -0.6431 C.2     
  19 O19            9.0789     0.9519    -1.1204 O.2     
  20 O20            8.2322     2.9685    -0.7379 O.3     
  21 N21            8.1127    -1.1905    -0.2456 N.am    
  22 C22            8.1557    -1.5684    -1.5386 C.2     
  23 C23            9.1840    -1.5898     0.6704 C.3     
  24 O24            7.3149    -1.1684    -2.3156 O.2     
  25 C25            9.2488    -2.4881    -2.0187 C.3     
  26 C26            9.1970    -2.5887    -3.5445 C.3     
  27 C27           10.3067    -3.5224    -4.0320 C.3     
  28 C28           10.1088    -4.9116    -3.4223 C.3     
  29 C29           10.1606    -4.8110    -1.8965 C.3     
  30 C30            9.0509    -3.8773    -1.4090 C.3     
  31 C31           11.2185    -5.8453    -3.9098 C.3     
  32 C32            9.9219    -0.3445     1.1659 C.3     
  33 C33            8.5831    -2.3352     1.8638 C.3     
  34 H34            0.2867     4.3444     0.4809 H       
  35 H35            0.9440     4.2145    -1.9131 H       
  36 H36            2.9737     2.9747    -2.5413 H       
  37 H37            4.0982    -0.7395     1.8308 H       
  38 H38            5.9715    -2.0964     1.0051 H       
  39 H39            5.9824     2.8067     0.3749 H       
  40 H40            8.9940     3.3509    -1.1945 H       
  41 H41            9.8834    -2.2431     0.1487 H       
  42 H42           10.2172    -2.0919    -1.7134 H       
  43 H43            8.2286    -2.9849    -3.8499 H       
  44 H44            9.3380    -1.5989    -3.9789 H       
  45 H45           10.2699    -3.5940    -5.1190 H       
  46 H46           11.2752    -3.1262    -3.7267 H       
  47 H47            9.1404    -5.3078    -3.7277 H       
  48 H48           10.0196    -5.8008    -1.4622 H       
  49 H49           11.1290    -4.4148    -1.5912 H       
  50 H50            9.0877    -3.8057    -0.3220 H       
  51 H51            8.0824    -4.2735    -1.7144 H       
  52 H52           12.1870    -5.4491    -3.6045 H       
  53 H53           11.0775    -6.8350    -3.4755 H       
  54 H54           11.1817    -5.9170    -4.9969 H       
  55 H55            9.2255     0.3022     1.6997 H       
  56 H56           10.7278    -0.6425     1.8366 H       
  57 H57           10.3381     0.1940     0.3146 H       
  58 H58            7.9819    -3.1707     1.5051 H       
  59 H59            9.3854    -2.7112     2.4987 H       
  60 H60            7.9540    -1.6549     2.4378 H       
@<TRIPOS>BOND
   1    1    2 ar
   2    1    6 ar
   3    1   34 1
   4    2    3 ar
   5    2   35 1
   6    3    4 ar
   7    3   36 1
   8    4    5 ar
   9    5    6 ar
  10    5   13 1
  11    6    7 1
  12    7    8 1
  13    7    9 1
  14    7   10 1
  15   11   12 ar
  16   11   14 ar
  17   11   37 1
  18   12   13 1
  19   12   17 ar
  20   14   15 ar
  21   14   38 1
  22   15   16 ar
  23   15   21 1
  24   16   17 ar
  25   16   18 1
  26   17   39 1
  27   18   19 2
  28   18   20 1
  29   20   40 1
  30   21   22 am
  31   21   23 1
  32   22   24 2
  33   22   25 1
  34   23   32 1
  35   23   33 1
  36   23   41 1
  37   25   26 1
  38   25   30 1
  39   25   42 1
  40   26   27 1
  41   26   43 1
  42   26   44 1
  43   27   28 1
  44   27   45 1
  45   27   46 1
  46   28   29 1
  47   28   31 1
  48   28   47 1
  49   29   30 1
  50   29   48 1
  51   29   49 1
  52   30   50 1
  53   30   51 1
  54   31   52 1
  55   31   53 1
  56   31   54 1
  57   32   55 1
  58   32   56 1
  59   32   57 1
  60   33   58 1
  61   33   59 1
  62   33   60 1

#	End of record

