#	Name: ASD04880223
#	Creating user name:	WinNT
#	Creation time:	15. 06. 2019 20:53

#	Modifying user name:	WinNT
#	Modification time:	15. 06. 2019 20:53

#	Program:	/corina/corina34_cracker 3.40 0067  02.08.2006

@<TRIPOS>MOLECULE
ASD04880223
  32   34    0    0    0
SMALL
NO_CHARGES


@<TRIPOS>ATOM
   1 C1            -0.0144     1.2116     0.0087 C.2     
   2 O2             0.0435    -0.0026     0.0315 O.2     
   3 N3             1.1185     1.9393    -0.0483 N.am    
   4 N4             1.1862     3.3237    -0.1910 N.2     
   5 C5             2.3862     3.7919    -0.2199 C.2     
   6 C6             3.3749     2.6558    -0.0856 C.3     
   7 C7             2.4860     1.4023     0.0364 C.3     
   8 C8             2.1247     7.5173    -0.6104 C.ar    
   9 C9             1.7476     6.1974    -0.4798 C.ar    
  10 C10            2.7408     5.2160    -0.3621 C.ar    
  11 C11            4.0804     5.6264    -0.3827 C.ar    
  12 C12            4.3659     6.9687    -0.5171 C.ar    
  13 N13            3.3989     7.8601    -0.6251 N.ar    
  14 C14           -1.3274     1.8894     0.0373 C.ar    
  15 C15           -2.5036     1.1430    -0.0542 C.ar    
  16 C16           -3.7275     1.7833    -0.0263 C.ar    
  17 C17           -3.7877     3.1629     0.0922 C.ar    
  18 C18           -2.6249     3.9062     0.1832 C.ar    
  19 C19           -1.3966     3.2780     0.1618 C.ar    
  20 F20           -4.8674     1.0635    -0.1151 F       
  21 H21            4.0094     2.5946    -0.9699 H       
  22 H22            3.9801     2.7798     0.8125 H       
  23 H23            2.6454     0.9085     0.9950 H       
  24 H24            2.6799     0.7152    -0.7872 H       
  25 H25            1.3668     8.2807    -0.7063 H       
  26 H26            0.7027     5.9243    -0.4682 H       
  27 H27            4.8770     4.9025    -0.2945 H       
  28 H28            5.3953     7.2951    -0.5337 H       
  29 H29           -2.4568     0.0680    -0.1469 H       
  30 H30           -4.7465     3.6595     0.1133 H       
  31 H31           -2.6786     4.9810     0.2750 H       
  32 H32           -0.4901     3.8600     0.2375 H       
@<TRIPOS>BOND
   1    1    2 2
   2    1    3 am
   3    1   14 1
   4    3    4 1
   5    3    7 1
   6    4    5 2
   7    5    6 1
   8    5   10 1
   9    6    7 1
  10    6   21 1
  11    6   22 1
  12    7   23 1
  13    7   24 1
  14    8    9 ar
  15    8   13 ar
  16    8   25 1
  17    9   10 ar
  18    9   26 1
  19   10   11 ar
  20   11   12 ar
  21   11   27 1
  22   12   13 ar
  23   12   28 1
  24   14   15 ar
  25   14   19 ar
  26   15   16 ar
  27   15   29 1
  28   16   17 ar
  29   16   20 1
  30   17   18 ar
  31   17   30 1
  32   18   19 ar
  33   18   31 1
  34   19   32 1

#	End of record

