#	Name: ASD01840147
#	Creating user name:	WinNT
#	Creation time:	15. 06. 2019 19:37

#	Modifying user name:	WinNT
#	Modification time:	15. 06. 2019 19:37

#	Program:	/corina/corina34_cracker 3.40 0067  02.08.2006

@<TRIPOS>MOLECULE
ASD01840147
  45   48    0    0    0
SMALL
NO_CHARGES


@<TRIPOS>ATOM
   1 C1            -0.0168     1.3885     0.0097 C.ar    
   2 C2             0.0021    -0.0041     0.0020 C.ar    
   3 N3             1.1262    -0.6793    -0.0119 N.ar    
   4 C4             2.3102    -0.0599    -0.0198 C.ar    
   5 C5             2.3633     1.3570    -0.0132 C.ar    
   6 C6             1.1580     2.0857     0.0022 C.ar    
   7 C7             1.1642     3.5927     0.0093 C.3     
   8 C8            -1.3044    -0.7552     0.0104 C.3     
   9 C9             3.5097    -0.7964    -0.0342 C.ar    
  10 C10            4.7040    -0.1522    -0.0412 C.ar    
  11 C11            4.7676     1.2527    -0.0344 C.ar    
  12 C12            3.6054     2.0069    -0.0206 C.ar    
  13 C13            6.0816     1.9285    -0.0419 C.2     
  14 N14            7.2146     1.1987    -0.0552 N.am    
  15 O15            6.1407     3.1427    -0.0360 O.2     
  16 C16            8.5174     1.8688    -0.0627 C.3     
  17 C17            9.6574     1.0133     0.5188 C.3     
  18 C18            9.2592     1.7662    -1.4076 C.3     
  19 N19           10.4769     1.5192    -0.6044 N.3     
  20 C20           11.2429     0.5007    -1.1608 C.ar    
  21 N21           10.8334    -0.0974    -2.2686 N.ar    
  22 C22           11.5300    -1.0681    -2.8293 C.ar    
  23 C23           12.7202    -1.4970    -2.2749 C.ar    
  24 C24           13.1848    -0.8948    -1.1118 C.ar    
  25 C25           12.4353     0.1235    -0.5513 C.ar    
  26 Cl26          13.6258    -2.7753    -3.0228 Cl      
  27 H27           -0.9589     1.9165     0.0170 H       
  28 H28            1.1555     3.9608    -1.0166 H       
  29 H29            0.2809     3.9572     0.5336 H       
  30 H30            2.0608     3.9499     0.5159 H       
  31 H31           -1.6292    -0.9307    -1.0152 H       
  32 H32           -1.1710    -1.7106     0.5179 H       
  33 H33           -2.0580    -0.1675     0.5346 H       
  34 H34            3.4795    -1.8760    -0.0392 H       
  35 H35            5.6186    -0.7265    -0.0519 H       
  36 H36            3.6560     3.0857    -0.0154 H       
  37 H37            7.1675     0.2299    -0.0599 H       
  38 H38            8.4774     2.8800     0.3422 H       
  39 H39           10.0009     1.3465     1.4981 H       
  40 H40            9.4676    -0.0592     0.4757 H       
  41 H41            8.9529     0.9140    -2.0142 H       
  42 H42            9.2845     2.7011    -1.9675 H       
  43 H43           11.1645    -1.5332    -3.7329 H       
  44 H44           14.1123    -1.2117    -0.6584 H       
  45 H45           12.7668     0.6133     0.3523 H       
@<TRIPOS>BOND
   1    1    2 ar
   2    1    6 ar
   3    1   27 1
   4    2    3 ar
   5    2    8 1
   6    3    4 ar
   7    4    5 ar
   8    4    9 ar
   9    5    6 ar
  10    5   12 ar
  11    6    7 1
  12    7   28 1
  13    7   29 1
  14    7   30 1
  15    8   31 1
  16    8   32 1
  17    8   33 1
  18    9   10 ar
  19    9   34 1
  20   10   11 ar
  21   10   35 1
  22   11   12 ar
  23   11   13 1
  24   12   36 1
  25   13   14 am
  26   13   15 2
  27   14   16 1
  28   14   37 1
  29   16   17 1
  30   16   18 1
  31   16   38 1
  32   17   19 1
  33   17   39 1
  34   17   40 1
  35   18   19 1
  36   18   41 1
  37   18   42 1
  38   19   20 1
  39   20   21 ar
  40   20   25 ar
  41   21   22 ar
  42   22   23 ar
  43   22   43 1
  44   23   24 ar
  45   23   26 1
  46   24   25 ar
  47   24   44 1
  48   25   45 1

#	End of record

