#	Name: ASD01028244
#	Creating user name:	WinNT
#	Creation time:	15. 06. 2019 18:56

#	Modifying user name:	WinNT
#	Modification time:	15. 06. 2019 18:56

#	Program:	/corina/corina34_cracker 3.40 0067  02.08.2006

@<TRIPOS>MOLECULE
ASD01028244
  54   59    0    0    0
SMALL
NO_CHARGES


@<TRIPOS>ATOM
   1 C1            -0.0166     1.3760     0.0096 C.ar    
   2 C2             0.0021    -0.0041     0.0020 C.ar    
   3 C3             1.1886     2.0856     0.0019 C.ar    
   4 N4             2.3451     1.4694    -0.0124 N.ar    
   5 C5             2.4264     0.1387    -0.0203 C.ar    
   6 C6             1.2519    -0.6504    -0.0134 C.ar    
   7 C7             3.6832    -0.5160    -0.0353 C.ar    
   8 C8             3.6951    -1.9008    -0.0424 C.ar    
   9 C9             2.4961    -2.6011    -0.0348 C.ar    
  10 N10            1.3369    -1.9849    -0.0204 N.ar    
  11 N11            4.8662     0.2087    -0.0430 N.pl3   
  12 C12            6.1535    -0.4905    -0.0585 C.3     
  13 C13            7.2730     0.5183    -0.0643 C.2     
  14 N14            7.8788     1.0498     1.0269 N.pl3   
  15 C15            8.8327     1.9155     0.5449 C.2     
  16 N16            8.7608     1.8682    -0.7749 N.2     
  17 N17            7.8418     1.0372    -1.1239 N.2     
  18 N18            7.7149     0.8839     2.4034 N.2     
  19 C19            8.4682     1.5514     3.2496 C.2     
  20 C20            9.4555     2.4470     2.7863 C.2     
  21 C21            9.6385     2.6296     1.4519 C.2     
  22 C22            8.2777     1.3611     4.7080 C.ar    
  23 C23            7.3032     0.4775     5.1762 C.ar    
  24 C24            9.0756     2.0603     5.6134 C.ar    
  25 C25            8.9015     1.8862     6.9682 C.ar    
  26 C26            7.9232     1.0069     7.4393 C.ar    
  27 C27            7.1299     0.3042     6.5270 C.ar    
  28 O28           -1.2006     2.0423     0.0188 O.3     
  29 C29           -1.1415     3.4701     0.0263 C.3     
  30 C30            7.5115     0.6207     8.8023 C.2     
  31 N31            6.5089    -0.2729     8.7514 N.am    
  32 C32            6.1888    -0.5444     7.3455 C.3     
  33 C33            5.8473    -0.8793     9.9094 C.3     
  34 O34            8.0087     1.0492     9.8255 O.2     
  35 H35           -0.9166    -0.5719     0.0081 H       
  36 H36            1.1657     3.1653     0.0075 H       
  37 H37            4.6340    -2.4344    -0.0541 H       
  38 H38            2.5176    -3.6808    -0.0405 H       
  39 H39            4.8409     1.1784    -0.0382 H       
  40 H40            6.2359    -1.1196     0.8278 H       
  41 H41            6.2191    -1.1112    -0.9520 H       
  42 H42           10.0667     2.9884     3.4932 H       
  43 H43           10.3928     3.3135     1.0920 H       
  44 H44            6.6868    -0.0682     4.4771 H       
  45 H45            9.8325     2.7400     5.2508 H       
  46 H46            9.5214     2.4289     7.6665 H       
  47 H47           -2.1532     3.8755     0.0333 H       
  48 H48           -0.6088     3.8070     0.9156 H       
  49 H49           -0.6173     3.8167    -0.8643 H       
  50 H50            5.1560    -0.2661     7.1360 H       
  51 H51            6.3455    -1.5999     7.1228 H       
  52 H52            6.2934    -0.4935    10.8260 H       
  53 H53            4.7854    -0.6338     9.8908 H       
  54 H54            5.9707    -1.9616     9.8728 H       
@<TRIPOS>BOND
   1    1    2 ar
   2    1    3 ar
   3    1   28 1
   4    2    6 ar
   5    2   35 1
   6    3    4 ar
   7    3   36 1
   8    4    5 ar
   9    5    6 ar
  10    5    7 ar
  11    6   10 ar
  12    7    8 ar
  13    7   11 1
  14    8    9 ar
  15    8   37 1
  16    9   10 ar
  17    9   38 1
  18   11   12 1
  19   11   39 1
  20   12   13 1
  21   12   40 1
  22   12   41 1
  23   13   14 1
  24   13   17 2
  25   14   15 1
  26   14   18 1
  27   15   16 2
  28   15   21 1
  29   16   17 1
  30   18   19 2
  31   19   20 1
  32   19   22 1
  33   20   21 2
  34   20   42 1
  35   21   43 1
  36   22   23 ar
  37   22   24 ar
  38   23   27 ar
  39   23   44 1
  40   24   25 ar
  41   24   45 1
  42   25   26 ar
  43   25   46 1
  44   26   27 ar
  45   26   30 1
  46   27   32 1
  47   28   29 1
  48   29   47 1
  49   29   48 1
  50   29   49 1
  51   30   31 am
  52   30   34 2
  53   31   32 1
  54   31   33 1
  55   32   50 1
  56   32   51 1
  57   33   52 1
  58   33   53 1
  59   33   54 1

#	End of record

