#	Name: ASD01810299
#	Creating user name:	WinNT
#	Creation time:	15. 06. 2019 19:24

#	Modifying user name:	WinNT
#	Modification time:	15. 06. 2019 19:24

#	Program:	/corina/corina34_cracker 3.40 0067  02.08.2006

@<TRIPOS>MOLECULE
ASD01810299
  39   42    0    0    0
SMALL
NO_CHARGES


@<TRIPOS>ATOM
   1 C1            -0.0739     1.3171     0.1637 C.ar    
   2 C2            -0.0307    -0.0687     0.1523 C.ar    
   3 C3             1.1753    -0.7364     0.0875 C.ar    
   4 C4             2.3678    -0.0172     0.0324 C.ar    
   5 C5             2.3225     1.3874     0.0436 C.ar    
   6 C6             1.0944     2.0504     0.1098 C.ar    
   7 N7             3.5791    -0.6732    -0.0315 N.pl3   
   8 C8             4.7513    -0.0282    -0.0852 C.2     
   9 C9             4.8333     1.3496    -0.0800 C.2     
  10 C10            3.5905     2.1359    -0.0152 C.2     
  11 O11            3.6095     3.3544    -0.0085 O.2     
  12 C12            3.5837    -2.1382    -0.0406 C.3     
  13 C13            3.7124    -2.6489     1.3714 C.ar    
  14 C14            2.5869    -2.7673     2.1667 C.ar    
  15 C15            2.6992    -3.2340     3.4607 C.ar    
  16 C16            3.9491    -3.5866     3.9654 C.ar    
  17 C17            5.0794    -3.4658     3.1598 C.ar    
  18 C18            4.9549    -3.0029     1.8655 C.ar    
  19 C19            4.0760    -4.0887     5.3563 C.2     
  20 C20            6.1395     2.0204    -0.1390 C.2     
  21 O21            6.2067     3.3668    -0.1333 O.3     
  22 O22            7.1595     1.3612    -0.1931 O.2     
  23 F23            1.2000    -2.0871     0.0781 F       
  24 F24            1.0505     3.4006     0.1202 F       
  25 C25            5.2590    -4.4556     5.9292 C.2     
  26 S26            4.8212    -4.9470     7.5194 S.3     
  27 N27            3.2889    -4.6745     7.3599 N.2     
  28 N28            3.0549    -4.2277     6.1888 N.2     
  29 H29           -1.0259     1.8250     0.2106 H       
  30 H30           -0.9512    -0.6319     0.1948 H       
  31 H31            5.6629    -0.6053    -0.1338 H       
  32 H32            2.6524    -2.5017    -0.4749 H       
  33 H33            4.4252    -2.4953    -0.6343 H       
  34 H34            1.6186    -2.4936     1.7745 H       
  35 H35            1.8199    -3.3254     4.0811 H       
  36 H36            6.0506    -3.7377     3.5461 H       
  37 H37            5.8304    -2.9092     1.2400 H       
  38 H38            7.0880     3.7626    -0.1736 H       
  39 H39            6.2439    -4.4412     5.4862 H       
@<TRIPOS>BOND
   1    1    2 ar
   2    1    6 ar
   3    1   29 1
   4    2    3 ar
   5    2   30 1
   6    3    4 ar
   7    3   23 1
   8    4    5 ar
   9    4    7 1
  10    5    6 ar
  11    5   10 1
  12    6   24 1
  13    7    8 1
  14    7   12 1
  15    8    9 2
  16    8   31 1
  17    9   10 1
  18    9   20 1
  19   10   11 2
  20   12   13 1
  21   12   32 1
  22   12   33 1
  23   13   14 ar
  24   13   18 ar
  25   14   15 ar
  26   14   34 1
  27   15   16 ar
  28   15   35 1
  29   16   17 ar
  30   16   19 1
  31   17   18 ar
  32   17   36 1
  33   18   37 1
  34   19   25 2
  35   19   28 1
  36   20   21 1
  37   20   22 2
  38   21   38 1
  39   25   26 1
  40   25   39 1
  41   26   27 1
  42   27   28 2

#	End of record

