#	Name: ASD02198512
#	Creating user name:	WinNT
#	Creation time:	15. 06. 2019 20:19

#	Modifying user name:	WinNT
#	Modification time:	15. 06. 2019 20:19

#	Program:	/corina/corina34_cracker 3.40 0067  02.08.2006

@<TRIPOS>MOLECULE
ASD02198512
  42   45    0    0    0
SMALL
NO_CHARGES


@<TRIPOS>ATOM
   1 C1             0.0970     1.0056    -0.1355 C.2     
   2 C2             0.3603    -0.3224    -0.2185 C.2     
   3 N3             1.6342    -0.7782    -0.2181 N.pl3   
   4 N4             2.6571    -0.0095    -0.1415 N.2     
   5 C5             2.5439     1.2979    -0.0562 C.2     
   6 C6             1.1969     1.8932    -0.0490 C.2     
   7 C7             1.8452    -2.1554    -0.3052 C.ar    
   8 C8             3.3467    -4.0092    -0.5520 C.ar    
   9 C9             2.2641    -4.8893    -0.4789 C.ar    
  10 C10            0.9694    -4.3880    -0.3233 C.ar    
  11 C11            0.7646    -3.0288    -0.2373 C.ar    
  12 C12            3.7449     2.1530     0.0310 C.2     
  13 N13            4.8810     1.8872     0.7426 N.pl3   
  14 N14            5.7654     2.9556     0.5490 N.2     
  15 C15            5.1997     3.8325    -0.2416 C.2     
  16 C16            3.9333     3.3661    -0.5943 C.2     
  17 C17            5.1181     0.7503     1.5256 C.ar    
  18 C18            4.1184     0.2536     2.3517 C.ar    
  19 O19            1.0353     3.1017     0.0280 O.2     
  20 C20            6.3513     0.1141     1.4732 C.ar    
  21 C21            6.5818    -1.0070     2.2462 C.ar    
  22 C22            5.5859    -1.4963     3.0714 C.ar    
  23 C23            4.3552    -0.8678     3.1223 C.ar    
  24 C24            3.1352    -2.6512    -0.4654 C.ar    
  25 C25            2.4873    -6.3463    -0.5715 C.2     
  26 O26            3.6141    -6.7810    -0.7115 O.2     
  27 N27            1.4420    -7.1941    -0.5007 N.am    
  28 H28           -0.9181     1.3742    -0.1399 H       
  29 H29           -0.4573    -1.0249    -0.2853 H       
  30 H30            4.3487    -4.3937    -0.6723 H       
  31 H31            0.1305    -5.0658    -0.2664 H       
  32 H32           -0.2360    -2.6407    -0.1166 H       
  33 H33            5.6417     4.7618    -0.5693 H       
  34 H34            3.2255     3.8684    -1.2371 H       
  35 H35            3.1570     0.7440     2.3919 H       
  36 H36            7.1293     0.4953     0.8283 H       
  37 H37            7.5407    -1.5023     2.2058 H       
  38 H38            5.7683    -2.3736     3.6744 H       
  39 H39            3.5794    -1.2524     3.7678 H       
  40 H40            3.9716    -1.9703    -0.5222 H       
  41 H41            0.5430    -6.8473    -0.3890 H       
  42 H42            1.5886    -8.1510    -0.5615 H       
@<TRIPOS>BOND
   1    1    2 2
   2    1    6 1
   3    1   28 1
   4    2    3 1
   5    2   29 1
   6    3    4 1
   7    3    7 1
   8    4    5 2
   9    5    6 1
  10    5   12 1
  11    6   19 2
  12    7   24 ar
  13    7   11 ar
  14    8    9 ar
  15    8   24 ar
  16    8   30 1
  17    9   10 ar
  18    9   25 1
  19   10   11 ar
  20   10   31 1
  21   11   32 1
  22   12   13 1
  23   12   16 2
  24   13   14 1
  25   13   17 1
  26   14   15 2
  27   15   16 1
  28   15   33 1
  29   16   34 1
  30   17   20 ar
  31   17   18 ar
  32   18   23 ar
  33   18   35 1
  34   20   21 ar
  35   20   36 1
  36   21   22 ar
  37   21   37 1
  38   22   23 ar
  39   22   38 1
  40   23   39 1
  41   24   40 1
  42   25   26 2
  43   25   27 am
  44   27   41 1
  45   27   42 1

#	End of record

