#	Name: ASD00170623
#	Creating user name:	WinNT
#	Creation time:	15. 06. 2019 18:32

#	Modifying user name:	WinNT
#	Modification time:	15. 06. 2019 18:32

#	Program:	/corina/corina34_cracker 3.40 0067  02.08.2006

@<TRIPOS>MOLECULE
ASD00170623
  34   36    0    0    0
SMALL
NO_CHARGES


@<TRIPOS>ATOM
   1 C1            -0.0146     1.2125    -0.0046 C.2     
   2 O2             0.6111     1.0320    -1.0335 O.2     
   3 C3             0.5184     0.7149     1.2820 C.ar    
   4 C4             1.6826    -0.0551     1.3073 C.ar    
   5 C5             2.1751    -0.5160     2.5100 C.ar    
   6 C6             1.5171    -0.2163     3.6915 C.ar    
   7 C7             0.3613     0.5468     3.6726 C.ar    
   8 C8            -0.1376     1.0181     2.4765 C.ar    
   9 Cl9            2.1431    -0.8000     5.2018 Cl      
  10 C10           -3.5973     2.1241    -0.1833 C.2     
  11 C11           -2.5754     1.2623    -0.1757 C.2     
  12 C12           -1.2905     1.9270    -0.0403 C.2     
  13 C13           -1.3941     3.2915     0.0511 C.2     
  14 S14           -3.0243     3.7763    -0.0248 S.3     
  15 C15           -2.7457    -0.2438    -0.2958 C.3     
  16 C16           -4.1443    -0.5395    -0.8421 C.3     
  17 C17           -5.1799     0.2253    -0.0123 C.3     
  18 C18           -5.0537     1.7216    -0.3178 C.3     
  19 O19           -6.4928    -0.2225    -0.3559 O.3     
  20 N20           -0.3243     4.1529     0.1861 N.pl3   
  21 H21            2.1964    -0.2896     0.3867 H       
  22 H22            3.0755    -1.1120     2.5309 H       
  23 H23           -0.1479     0.7766     4.5968 H       
  24 H24           -1.0363     1.6167     2.4634 H       
  25 H25           -1.9951    -0.6432    -0.9778 H       
  26 H26           -2.6321    -0.7038     0.6859 H       
  27 H27           -4.2038    -0.2207    -1.8827 H       
  28 H28           -4.3425    -1.6093    -0.7760 H       
  29 H29           -4.9992     0.0497     1.0481 H       
  30 H30           -5.6561     2.2866     0.3936 H       
  31 H31           -5.3967     1.9244    -1.3323 H       
  32 H32           -7.1999     0.2206     0.1328 H       
  33 H33            0.5718     3.7993     0.2996 H       
  34 H34           -0.4685     5.1120     0.1675 H       
@<TRIPOS>BOND
   1    1    2 2
   2    1    3 1
   3    1   12 1
   4    3    4 ar
   5    3    8 ar
   6    4    5 ar
   7    4   21 1
   8    5    6 ar
   9    5   22 1
  10    6    7 ar
  11    6    9 1
  12    7    8 ar
  13    7   23 1
  14    8   24 1
  15   10   11 2
  16   10   14 1
  17   10   18 1
  18   11   12 1
  19   11   15 1
  20   12   13 2
  21   13   14 1
  22   13   20 1
  23   15   16 1
  24   15   25 1
  25   15   26 1
  26   16   17 1
  27   16   27 1
  28   16   28 1
  29   17   18 1
  30   17   19 1
  31   17   29 1
  32   18   30 1
  33   18   31 1
  34   19   32 1
  35   20   33 1
  36   20   34 1

#	End of record

