#	Name: ASD00990033
#	Creating user name:	WinNT
#	Creation time:	15. 06. 2019 18:54

#	Modifying user name:	WinNT
#	Modification time:	15. 06. 2019 18:54

#	Program:	/corina/corina34_cracker 3.40 0067  02.08.2006

@<TRIPOS>MOLECULE
ASD00990033
  62   66    0    0    0
SMALL
NO_CHARGES


@<TRIPOS>ATOM
   1 C1            -0.0166     1.3730     0.0096 C.ar    
   2 C2             0.0021    -0.0041     0.0020 C.ar    
   3 C3             1.2248    -0.6787    -0.0137 C.ar    
   4 C4             2.4125     0.0510    -0.0193 C.ar    
   5 C5             2.3812     1.4352    -0.0085 C.ar    
   6 C6             1.1692     2.0952     0.0021 C.ar    
   7 C7             1.0899     3.6009     0.0013 C.3     
   8 C8             3.6912     2.1792    -0.0031 C.3     
   9 N9             3.4909     3.5751    -0.4045 N.3     
  10 C10            2.4370     4.1948     0.4132 C.3     
  11 C11            1.2582    -2.1103    -0.0235 C.1     
  12 C12            4.7448     4.3347    -0.3113 C.3     
  13 C13            5.7428     3.7997    -1.3402 C.3     
  14 C14            7.0488     4.5908    -1.2432 C.3     
  15 C15            6.7949     6.0454    -1.6440 C.3     
  16 C16            8.0881     3.9768    -2.1833 C.3     
  17 C17            9.3941     4.7679    -2.0863 C.3     
  18 C18            9.1402     6.2225    -2.4871 C.3     
  19 C19            8.1009     6.8366    -1.5470 C.3     
  20 N20           10.3907     6.9801    -2.3942 N.am    
  21 C21           10.5628     8.0904    -3.1385 C.2     
  22 C22           11.8181     8.8508    -3.0453 C.2     
  23 O23            9.6799     8.4635    -3.8875 O.2     
  24 N24           12.8927     8.5268    -2.2399 N.pl3   
  25 C25           12.1080     9.9806    -3.7419 C.2     
  26 C26           13.4084    10.3967    -3.3668 C.ar    
  27 C27           13.8807     9.4656    -2.4208 C.ar    
  28 C28           14.2212    11.4725    -3.7461 C.ar    
  29 C29           15.4619    11.6132    -3.1953 C.ar    
  30 C30           15.9285    10.6984    -2.2601 C.ar    
  31 C31           15.1509     9.6288    -1.8757 C.ar    
  32 N32            1.2847    -3.2460    -0.0314 N.1     
  33 H33           -0.9617     1.8956     0.0169 H       
  34 H34           -0.9242    -0.5594     0.0086 H       
  35 H35            3.3610    -0.4654    -0.0316 H       
  36 H36            0.8315     3.9490    -0.9988 H       
  37 H37            0.3221     3.9232     0.7046 H       
  38 H38            4.1167     2.1509     1.0000 H       
  39 H39            4.3798     1.7001    -0.6990 H       
  40 H40            2.4290     5.2718     0.2456 H       
  41 H41            2.6221     3.9867     1.4670 H       
  42 H42            4.5472     5.3880    -0.5104 H       
  43 H43            5.1619     4.2262     0.6899 H       
  44 H44            5.9405     2.7464    -1.1411 H       
  45 H45            5.3258     3.9082    -2.3414 H       
  46 H46            7.4197     4.5556    -0.2189 H       
  47 H47            6.4240     6.0806    -2.6683 H       
  48 H48            6.0545     6.4829    -0.9742 H       
  49 H49            8.2690     2.9405    -1.8978 H       
  50 H50            7.7172     4.0120    -3.2077 H       
  51 H51            9.7650     4.7327    -1.0620 H       
  52 H52           10.1345     4.3305    -2.7560 H       
  53 H53            8.7693     6.2577    -3.5114 H       
  54 H54            7.9200     7.8728    -1.8325 H       
  55 H55            8.4718     6.8014    -0.5226 H       
  56 H56           11.0947     6.6825    -1.7970 H       
  57 H57           12.9420     7.7625    -1.6445 H       
  58 H58           11.4625    10.4730    -4.4541 H       
  59 H59           13.8670    12.1887    -4.4728 H       
  60 H60           16.0869    12.4433    -3.4897 H       
  61 H61           16.9130    10.8242    -1.8342 H       
  62 H62           15.5245     8.9203    -1.1512 H       
@<TRIPOS>BOND
   1    1    2 ar
   2    1    6 ar
   3    1   33 1
   4    2    3 ar
   5    2   34 1
   6    3    4 ar
   7    3   11 1
   8    4    5 ar
   9    4   35 1
  10    5    6 ar
  11    5    8 1
  12    6    7 1
  13    7   10 1
  14    7   36 1
  15    7   37 1
  16    8    9 1
  17    8   38 1
  18    8   39 1
  19    9   10 1
  20    9   12 1
  21   10   40 1
  22   10   41 1
  23   11   32 3
  24   12   13 1
  25   12   42 1
  26   12   43 1
  27   13   14 1
  28   13   44 1
  29   13   45 1
  30   14   16 1
  31   14   15 1
  32   14   46 1
  33   15   19 1
  34   15   47 1
  35   15   48 1
  36   16   17 1
  37   16   49 1
  38   16   50 1
  39   17   18 1
  40   17   51 1
  41   17   52 1
  42   18   19 1
  43   18   20 1
  44   18   53 1
  45   19   54 1
  46   19   55 1
  47   20   21 am
  48   20   56 1
  49   21   22 1
  50   21   23 2
  51   22   25 2
  52   22   24 1
  53   24   27 1
  54   24   57 1
  55   25   26 1
  56   25   58 1
  57   26   28 ar
  58   26   27 ar
  59   27   31 ar
  60   28   29 ar
  61   28   59 1
  62   29   30 ar
  63   29   60 1
  64   30   31 ar
  65   30   61 1
  66   31   62 1

#	End of record

