#	Name: ASD00990042
#	Creating user name:	WinNT
#	Creation time:	15. 06. 2019 18:54

#	Modifying user name:	WinNT
#	Modification time:	15. 06. 2019 18:54

#	Program:	/corina/corina34_cracker 3.40 0067  02.08.2006

@<TRIPOS>MOLECULE
ASD00990042
  27   26    0    0    0
SMALL
NO_CHARGES


@<TRIPOS>ATOM
   1 C1            -0.0170     1.4005     0.0097 C.ar    
   2 C2             0.0021    -0.0041     0.0020 C.ar    
   3 C3            -1.1910    -0.7139     0.0089 C.ar    
   4 C4            -2.3929    -0.0361     0.0234 C.ar    
   5 C5            -2.4165     1.3547     0.0311 C.ar    
   6 C6            -1.2422     2.0729     0.0301 C.ar    
   7 N7             1.2768     1.8142    -0.0004 N.2     
   8 C8             2.0664     0.7804    -0.0135 C.2     
   9 N9             1.3347    -0.3668    -0.0127 N.pl3   
  10 C10            3.5720     0.8442    -0.0280 C.3     
  11 N11            4.0425     0.9932    -1.4116 N.3     
  12 C12            5.5091     1.0589    -1.4647 C.3     
  13 Cl13          -3.9379     2.1906     0.0492 Cl      
  14 F14           -3.5536    -0.7274     0.0296 F       
  15 H15           -1.1785    -1.7938     0.0026 H       
  16 H16           -1.2675     3.1525     0.0365 H       
  17 H17            1.6841    -1.2717    -0.0204 H       
  18 H18            3.9052     1.6973     0.5630 H       
  19 H19            3.9786    -0.0734     0.3972 H       
  20 H20            3.6926     0.2478    -1.9947 H       
  21 H21            5.8305     1.1692    -2.5004 H       
  22 H22            5.8558     1.9136    -0.8837 H       
  23 H23            5.9291     0.1428    -1.0495 H       
  24 Cl24          10.9291     8.1525     5.5630 Cl      
  25 H25           10.9291     9.5225     5.5630 H       
  26 Cl26          15.9291    14.5225    10.5630 Cl      
  27 H27           15.9291    15.8925    10.5630 H       
@<TRIPOS>BOND
   1    1    2 ar
   2    1    7 1
   3    1    6 ar
   4    2    3 ar
   5    2    9 1
   6    3    4 ar
   7    3   15 1
   8    4    5 ar
   9    4   14 1
  10    5    6 ar
  11    5   13 1
  12    6   16 1
  13    7    8 2
  14    8    9 1
  15    8   10 1
  16    9   17 1
  17   10   11 1
  18   10   18 1
  19   10   19 1
  20   11   12 1
  21   11   20 1
  22   12   21 1
  23   12   22 1
  24   12   23 1
  25   24   25 1
  26   26   27 1

#	End of record

