#	Name: ASD02198821
#	Creating user name:	WinNT
#	Creation time:	15. 06. 2019 20:20

#	Modifying user name:	WinNT
#	Modification time:	15. 06. 2019 20:20

#	Program:	/corina/corina34_cracker 3.40 0067  02.08.2006

@<TRIPOS>MOLECULE
ASD02198821
  56   60    0    0    0
SMALL
NO_CHARGES


@<TRIPOS>ATOM
   1 C1            -0.0163     1.3526     0.0095 C.2     
   2 C2             0.0021    -0.0041     0.0020 C.2     
   3 N3             1.1721    -0.6813    -0.0128 N.pl3   
   4 N4             2.3180    -0.1068    -0.0206 N.2     
   5 C5             2.4432     1.2032    -0.0148 C.2     
   6 C6             1.2263     2.0305     0.0013 C.2     
   7 C7             1.1302    -2.0795    -0.0194 C.ar    
   8 C8             1.8109    -2.8028     0.9592 C.ar    
   9 C9             1.7673    -4.1869     0.9496 C.ar    
  10 C10            1.0466    -4.8508    -0.0333 C.ar    
  11 C11            0.3694    -4.1281    -1.0078 C.ar    
  12 C12            0.4058    -2.7486    -0.9974 C.ar    
  13 C13            3.7799     1.8313    -0.0237 C.2     
  14 N14            4.5048     2.1825    -1.1278 N.pl3   
  15 N15            5.7090     2.7449    -0.6864 N.2     
  16 C16            5.7216     2.7388     0.6227 C.2     
  17 C17            4.5284     2.1790     1.0795 C.2     
  18 C18            4.1134     2.0107    -2.4617 C.ar    
  19 C19            3.3651     0.9000    -2.8292 C.ar    
  20 C20            2.9792     0.7305    -4.1449 C.ar    
  21 C21            3.3366     1.6646    -5.0983 C.ar    
  22 C22            4.0848     2.7764    -4.7368 C.ar    
  23 C23            4.4682     2.9532    -3.4168 C.ar    
  24 O24            1.2860     3.2511     0.0068 O.2     
  25 N25            1.0023    -6.2517    -0.0432 N.pl3   
  26 N26            1.6340    -7.1030     0.8725 N.2     
  27 C27            1.3614    -8.3386     0.5378 C.2     
  28 C28            0.5482    -8.3149    -0.6005 C.2     
  29 C29            0.3373    -7.0206    -0.9349 C.2     
  30 O30            2.5163    -2.1506     1.9204 O.3     
  31 C31            3.1888    -2.9559     2.8906 C.3     
  32 O32            4.4365     3.6939    -5.6756 O.3     
  33 C33            4.0021     3.4506    -7.0151 C.3     
  34 F34            2.6046     3.3946    -7.0492 F       
  35 F35            4.4476     4.4850    -7.8450 F       
  36 F36            4.5286     2.2342    -7.4625 F       
  37 C37            4.1327     1.9824     2.5202 C.3     
  38 H38           -0.9487     1.8976     0.0169 H       
  39 H39           -0.9298    -0.5499     0.0083 H       
  40 H40            2.2940    -4.7494     1.7063 H       
  41 H41           -0.1905    -4.6468    -1.7719 H       
  42 H42           -0.1215    -2.1891    -1.7559 H       
  43 H43            6.5218     3.1095     1.2461 H       
  44 H44            3.0851     0.1680    -2.0860 H       
  45 H45            2.3973    -0.1339    -4.4289 H       
  46 H46            3.0338     1.5292    -6.1261 H       
  47 H47            5.0501     3.8179    -3.1336 H       
  48 H48            1.7053    -9.2242     1.0516 H       
  49 H49            0.1552    -9.1771    -1.1187 H       
  50 H50           -0.2507    -6.6658    -1.7684 H       
  51 H51            2.4601    -3.5655     3.4249 H       
  52 H52            3.9073    -3.6045     2.3893 H       
  53 H53            3.7121    -2.3121     3.5975 H       
  54 H54            3.6037     2.8666     2.8757 H       
  55 H55            3.4818     1.1119     2.6027 H       
  56 H56            5.0264     1.8263     3.1244 H       
@<TRIPOS>BOND
   1    1    2 2
   2    1    6 1
   3    1   38 1
   4    2    3 1
   5    2   39 1
   6    3    4 1
   7    3    7 1
   8    4    5 2
   9    5    6 1
  10    5   13 1
  11    6   24 2
  12    7    8 ar
  13    7   12 ar
  14    8    9 ar
  15    8   30 1
  16    9   10 ar
  17    9   40 1
  18   10   11 ar
  19   10   25 1
  20   11   12 ar
  21   11   41 1
  22   12   42 1
  23   13   14 1
  24   13   17 2
  25   14   15 1
  26   14   18 1
  27   15   16 2
  28   16   17 1
  29   16   43 1
  30   17   37 1
  31   18   19 ar
  32   18   23 ar
  33   19   20 ar
  34   19   44 1
  35   20   21 ar
  36   20   45 1
  37   21   22 ar
  38   21   46 1
  39   22   23 ar
  40   22   32 1
  41   23   47 1
  42   25   26 1
  43   25   29 1
  44   26   27 2
  45   27   28 1
  46   27   48 1
  47   28   29 2
  48   28   49 1
  49   29   50 1
  50   30   31 1
  51   31   51 1
  52   31   52 1
  53   31   53 1
  54   32   33 1
  55   33   34 1
  56   33   35 1
  57   33   36 1
  58   37   54 1
  59   37   55 1
  60   37   56 1

#	End of record

