#	Name: ASD01917862
#	Creating user name:	WinNT
#	Creation time:	15. 06. 2019 20:10

#	Modifying user name:	WinNT
#	Modification time:	15. 06. 2019 20:10

#	Program:	/corina/corina34_cracker 3.40 0067  02.08.2006

@<TRIPOS>MOLECULE
ASD01917862
  40   43    0    0    0
SMALL
NO_CHARGES


@<TRIPOS>ATOM
   1 C1            -0.0006     1.2960    -0.0568 C.2     
   2 C2            -0.0054    -0.0502    -0.0485 C.2     
   3 C3            -1.2838    -0.8732    -0.0116 C.3     
   4 C4            -2.4328     0.0073     0.4855 C.3     
   5 N5            -2.4005     1.2910    -0.2314 N.am    
   6 C6            -1.2352     2.1672    -0.0190 C.3     
   7 C7            -3.4039     1.6536    -1.0549 C.2     
   8 O8            -4.3026     0.8721    -1.2989 O.2     
   9 S9             1.6660     1.8529    -0.1105 S.3     
  10 C10            2.2144     0.2341    -0.1126 C.2     
  11 N11            1.2130    -0.5728    -0.0774 N.2     
  12 C12            3.6609    -0.1869    -0.1506 C.3     
  13 O13            4.0796    -0.3308    -1.5093 O.3     
  14 C14            5.3677    -0.7086    -1.7213 C.ar    
  15 C15            5.8412    -0.8674    -3.0156 C.ar    
  16 C16            7.1509    -1.2516    -3.2285 C.ar    
  17 C17            7.9898    -1.4778    -2.1529 C.ar    
  18 C18            7.5202    -1.3207    -0.8619 C.ar    
  19 C19            6.2129    -0.9307    -0.6439 C.ar    
  20 C20           -3.4117     3.0006    -1.6610 C.2     
  21 N21           -2.5705     3.9819    -1.4025 N.2     
  22 N22           -2.8672     5.0142    -2.1073 N.pl3   
  23 C23           -3.9428     4.7571    -2.8822 C.2     
  24 C24           -4.3198     3.4809    -2.6342 C.2     
  25 H25           -1.5114    -1.2381    -1.0132 H       
  26 H26           -1.1537    -1.7184     0.6644 H       
  27 H27           -3.3830    -0.4922     0.2960 H       
  28 H28           -2.3199     0.1843     1.5551 H       
  29 H29           -1.3136     2.6593     0.9504 H       
  30 H30           -1.1841     2.9141    -0.8113 H       
  31 H31            4.2727     0.5702     0.3399 H       
  32 H32            3.7761    -1.1388     0.3678 H       
  33 H33            5.1863    -0.6911    -3.8561 H       
  34 H34            7.5199    -1.3757    -4.2359 H       
  35 H35            9.0134    -1.7781    -2.3213 H       
  36 H36            8.1771    -1.4987    -0.0234 H       
  37 H37            5.8466    -0.8081     0.3647 H       
  38 H38           -2.3876     5.8570    -2.0860 H       
  39 H39           -4.4119     5.4407    -3.5743 H       
  40 H40           -5.1422     2.9433    -3.0826 H       
@<TRIPOS>BOND
   1    1    2 2
   2    1    9 1
   3    1    6 1
   4    2    3 1
   5    2   11 1
   6    3    4 1
   7    3   25 1
   8    3   26 1
   9    4    5 1
  10    4   27 1
  11    4   28 1
  12    5    6 1
  13    5    7 am
  14    6   29 1
  15    6   30 1
  16    7    8 2
  17    7   20 1
  18    9   10 1
  19   10   11 2
  20   10   12 1
  21   12   13 1
  22   12   31 1
  23   12   32 1
  24   13   14 1
  25   14   15 ar
  26   14   19 ar
  27   15   16 ar
  28   15   33 1
  29   16   17 ar
  30   16   34 1
  31   17   18 ar
  32   17   35 1
  33   18   19 ar
  34   18   36 1
  35   19   37 1
  36   20   21 2
  37   20   24 1
  38   21   22 1
  39   22   23 1
  40   22   38 1
  41   23   24 2
  42   23   39 1
  43   24   40 1

#	End of record

