#	Name: ASD01150207
#	Creating user name:	WinNT
#	Creation time:	15. 06. 2019 19:03

#	Modifying user name:	WinNT
#	Modification time:	15. 06. 2019 19:03

#	Program:	/corina/corina34_cracker 3.40 0067  02.08.2006

@<TRIPOS>MOLECULE
ASD01150207
  47   48    0    0    0
SMALL
NO_CHARGES


@<TRIPOS>ATOM
   1 N1            -0.0277     1.5362     0.4990 N.pl3   
   2 C2             0.0444     0.1983     0.4341 C.2     
   3 C3            -1.2447    -0.2823     0.3049 C.2     
   4 C4            -2.1095     0.8424     0.2948 C.2     
   5 N5            -1.3716     1.9167     0.4171 N.2     
   6 C6             1.1110     2.4472     0.6388 C.3     
   7 C7             1.0857     3.4730    -0.4961 C.3     
   8 C8            -1.6448    -1.6936     0.1977 C.2     
   9 O9            -0.7089    -2.6631     0.2218 O.3     
  10 O10           -2.8195    -1.9856     0.0873 O.2     
  11 C11           -1.1762    -4.0334     0.1113 C.3     
  12 C12            0.0205    -4.9856     0.1573 C.3     
  13 N13           -3.5021     0.8088     0.1810 N.am    
  14 C14           -4.2064     1.9579     0.1851 C.2     
  15 C15           -5.6949     1.9301    -0.0486 C.3     
  16 O16           -3.6422     3.0143     0.3769 O.2     
  17 C17           -6.4039     1.6799     1.2575 C.ar    
  18 C18           -6.1459     3.2740    -0.6243 C.3     
  19 C19           -5.5401     3.4613    -2.0168 C.3     
  20 C20           -7.2107     0.5670     1.4038 C.ar    
  21 C21           -7.8610     0.3374     2.6018 C.ar    
  22 C22           -7.7042     1.2205     3.6537 C.ar    
  23 C23           -6.8967     2.3329     3.5077 C.ar    
  24 C24           -6.2429     2.5602     2.3111 C.ar    
  25 H25            0.9458    -0.3951     0.4752 H       
  26 H26            1.0478     2.9635     1.5967 H       
  27 H27            2.0394     1.8779     0.5934 H       
  28 H28            1.1489     2.9568    -1.4540 H       
  29 H29            0.1573     4.0423    -0.4507 H       
  30 H30            1.9330     4.1509    -0.3921 H       
  31 H31           -1.8494    -4.2556     0.9392 H       
  32 H32           -1.7063    -4.1615    -0.8325 H       
  33 H33           -0.3303    -6.0143     0.0744 H       
  34 H34            0.6937    -4.7634    -0.6707 H       
  35 H35            0.5506    -4.8575     1.1010 H       
  36 H36           -3.9616    -0.0415     0.0991 H       
  37 H37           -5.9374     1.1337    -0.7521 H       
  38 H38           -7.2334     3.2921    -0.6958 H       
  39 H39           -5.8113     4.0798     0.0289 H       
  40 H40           -5.9418     2.7061    -2.6924 H       
  41 H41           -5.7904     4.4539    -2.3913 H       
  42 H42           -4.4567     3.3574    -1.9586 H       
  43 H43           -7.3332    -0.1230     0.5820 H       
  44 H44           -8.4919    -0.5317     2.7159 H       
  45 H45           -8.2129     1.0416     4.5894 H       
  46 H46           -6.7744     3.0231     4.3293 H       
  47 H47           -5.6120     3.4293     2.1970 H       
@<TRIPOS>BOND
   1    1    2 1
   2    1    6 1
   3    1    5 1
   4    2    3 2
   5    2   25 1
   6    3    4 1
   7    3    8 1
   8    4    5 2
   9    4   13 1
  10    6    7 1
  11    6   26 1
  12    6   27 1
  13    7   28 1
  14    7   29 1
  15    7   30 1
  16    8    9 1
  17    8   10 2
  18    9   11 1
  19   11   12 1
  20   11   31 1
  21   11   32 1
  22   12   33 1
  23   12   34 1
  24   12   35 1
  25   13   14 am
  26   13   36 1
  27   14   15 1
  28   14   16 2
  29   15   17 1
  30   15   18 1
  31   15   37 1
  32   17   20 ar
  33   17   24 ar
  34   18   19 1
  35   18   38 1
  36   18   39 1
  37   19   40 1
  38   19   41 1
  39   19   42 1
  40   20   21 ar
  41   20   43 1
  42   21   22 ar
  43   21   44 1
  44   22   23 ar
  45   22   45 1
  46   23   24 ar
  47   23   46 1
  48   24   47 1

#	End of record

