#	Name: ASD00170683
#	Creating user name:	WinNT
#	Creation time:	15. 06. 2019 18:32

#	Modifying user name:	WinNT
#	Modification time:	15. 06. 2019 18:32

#	Program:	/corina/corina34_cracker 3.40 0067  02.08.2006

@<TRIPOS>MOLECULE
ASD00170683
  36   38    0    0    0
SMALL
NO_CHARGES


@<TRIPOS>ATOM
   1 Cl1            3.2331     3.5137     3.6737 Cl      
   2 C2             2.2607     4.2566     2.4423 C.ar    
   3 C3             2.6696     4.2116     1.1197 C.ar    
   4 C4             1.9014     4.7999     0.1372 C.ar    
   5 C5             0.7093     5.4418     0.4779 C.ar    
   6 C6             0.3023     5.4838     1.8128 C.ar    
   7 C7             1.0761     4.8870     2.7857 C.ar    
   8 C8            -0.1187     6.0750    -0.5708 C.2     
   9 O9             0.2863     6.1265    -1.7179 O.2     
  10 C10           -1.4253     6.6398    -0.2300 C.2     
  11 C11           -2.5853     5.8983    -0.1739 C.2     
  12 N12           -2.6625     4.5458    -0.4278 N.pl3   
  13 S13           -3.9113     6.8798     0.2530 S.3     
  14 C14           -2.9136     8.3187     0.3636 C.2     
  15 C15           -1.6349     8.0319     0.0892 C.2     
  16 C16           -0.5311     9.0578     0.1016 C.3     
  17 C17           -3.4150     9.6629     0.7180 C.ar    
  18 C18           -4.5538    10.1738     0.0925 C.ar    
  19 C19           -5.0168    11.4291     0.4283 C.ar    
  20 C20           -4.3553    12.1814     1.3828 C.ar    
  21 C21           -3.2262    11.6810     2.0066 C.ar    
  22 C22           -2.7555    10.4251     1.6839 C.ar    
  23 H23            3.5922     3.7151     0.8574 H       
  24 H24            2.2215     4.7645    -0.8936 H       
  25 H25           -0.6189     5.9789     2.0823 H       
  26 H26            0.7623     4.9189     3.8187 H       
  27 H27           -1.8814     4.0667    -0.7461 H       
  28 H28           -3.4979     4.0731    -0.2883 H       
  29 H29           -0.1456     9.1645     1.1155 H       
  30 H30            0.2724     8.7350    -0.5605 H       
  31 H31           -0.9217    10.0159    -0.2414 H       
  32 H32           -5.0708     9.5877    -0.6529 H       
  33 H33           -5.8974    11.8257    -0.0551 H       
  34 H34           -4.7218    13.1637     1.6418 H       
  35 H35           -2.7143    12.2736     2.7504 H       
  36 H36           -1.8742    10.0356     2.1718 H       
@<TRIPOS>BOND
   1    1    2 1
   2    2    3 ar
   3    2    7 ar
   4    3    4 ar
   5    3   23 1
   6    4    5 ar
   7    4   24 1
   8    5    6 ar
   9    5    8 1
  10    6    7 ar
  11    6   25 1
  12    7   26 1
  13    8    9 2
  14    8   10 1
  15   10   11 2
  16   10   15 1
  17   11   12 1
  18   11   13 1
  19   12   27 1
  20   12   28 1
  21   13   14 1
  22   14   15 2
  23   14   17 1
  24   15   16 1
  25   16   29 1
  26   16   30 1
  27   16   31 1
  28   17   18 ar
  29   17   22 ar
  30   18   19 ar
  31   18   32 1
  32   19   20 ar
  33   19   33 1
  34   20   21 ar
  35   20   34 1
  36   21   22 ar
  37   21   35 1
  38   22   36 1

#	End of record

