#	Name: ASD03900008
#	Creating user name:	WinNT
#	Creation time:	15. 06. 2019 20:47

#	Modifying user name:	WinNT
#	Modification time:	15. 06. 2019 20:47

#	Program:	/corina/corina34_cracker 3.40 0067  02.08.2006

@<TRIPOS>MOLECULE
ASD03900008
  46   48    0    0    0
SMALL
NO_CHARGES


@<TRIPOS>ATOM
   1 C1            -0.0178     1.4608     0.0101 C.cat   
   2 C2             0.1160     0.0031     0.0704 C.ar    
   3 C3             0.5627     2.2940     1.0661 C.ar    
   4 C4            -0.7269     2.0856    -1.1093 C.ar    
   5 C5             1.2315    -0.5765     0.6962 C.ar    
   6 C6             1.3515    -1.9339     0.7503 C.ar    
   7 C7             0.3682    -2.7466     0.1845 C.ar    
   8 C8            -0.7418    -2.1753    -0.4389 C.ar    
   9 C9            -0.8737    -0.8189    -0.4925 C.ar    
  10 C10            1.0034     3.5950     0.7744 C.ar    
  11 C11            1.5427     4.3670     1.7609 C.ar    
  12 C12            1.6573     3.8659     3.0583 C.ar    
  13 C13            1.2212     2.5735     3.3528 C.ar    
  14 C14            0.6748     1.7962     2.3744 C.ar    
  15 C15           -1.3958     3.3066    -0.9259 C.ar    
  16 C16           -2.0542     3.8846    -1.9711 C.ar    
  17 C17           -2.0641     3.2645    -3.2212 C.ar    
  18 C18           -1.4012     2.0509    -3.4082 C.ar    
  19 C19           -0.7349     1.4683    -2.3706 C.ar    
  20 O20           -2.7175     3.8403    -4.2527 O.3     
  21 C21           -2.6877     3.1522    -5.5047 C.3     
  22 O22            0.4915    -4.0899     0.2401 O.3     
  23 C23           -0.5509    -4.8624    -0.3588 C.3     
  24 O24            2.1922     4.6337     4.0314 O.3     
  25 C25            2.2799     4.0589     5.3367 C.3     
  26 H26            1.9933     0.0517     1.1338 H       
  27 H27            2.2090    -2.3807     1.2314 H       
  28 H28           -1.4999    -2.8083    -0.8760 H       
  29 H29           -1.7333    -0.3776    -0.9749 H       
  30 H30            0.9158     3.9835    -0.2295 H       
  31 H31            1.8819     5.3678     1.5376 H       
  32 H32            1.3126     2.1896     4.3582 H       
  33 H33            0.3373     0.7961     2.6033 H       
  34 H34           -1.3893     3.7869     0.0414 H       
  35 H35           -2.5690     4.8237    -1.8310 H       
  36 H36           -1.4123     1.5744    -4.3774 H       
  37 H37           -0.2218     0.5292    -2.5165 H       
  38 H38           -3.2493     3.7213    -6.2456 H       
  39 H39           -1.6548     3.0447    -5.8358 H       
  40 H40           -3.1363     2.1657    -5.3879 H       
  41 H41           -1.4983    -4.6348     0.1298 H       
  42 H42           -0.6209    -4.6183    -1.4188 H       
  43 H43           -0.3286    -5.9233    -0.2441 H       
  44 H44            1.2812     3.7968     5.6861 H       
  45 H45            2.8982     3.1621     5.2981 H       
  46 H46            2.7270     4.7793     6.0217 H       
@<TRIPOS>BOND
   1    1    2 1
   2    1    3 1
   3    1    4 1
   4    2    5 ar
   5    2    9 ar
   6    3   10 ar
   7    3   14 ar
   8    4   15 ar
   9    4   19 ar
  10    5    6 ar
  11    5   26 1
  12    6    7 ar
  13    6   27 1
  14    7    8 ar
  15    7   22 1
  16    8    9 ar
  17    8   28 1
  18    9   29 1
  19   10   11 ar
  20   10   30 1
  21   11   12 ar
  22   11   31 1
  23   12   13 ar
  24   12   24 1
  25   13   14 ar
  26   13   32 1
  27   14   33 1
  28   15   16 ar
  29   15   34 1
  30   16   17 ar
  31   16   35 1
  32   17   18 ar
  33   17   20 1
  34   18   19 ar
  35   18   36 1
  36   19   37 1
  37   20   21 1
  38   21   38 1
  39   21   39 1
  40   21   40 1
  41   22   23 1
  42   23   41 1
  43   23   42 1
  44   23   43 1
  45   24   25 1
  46   25   44 1
  47   25   45 1
  48   25   46 1

#	End of record

