#	Name: ASD01882357
#	Creating user name:	WinNT
#	Creation time:	15. 06. 2019 19:44

#	Modifying user name:	WinNT
#	Modification time:	15. 06. 2019 19:44

#	Program:	/corina/corina34_cracker 3.40 0067  02.08.2006

@<TRIPOS>MOLECULE
ASD01882357
  52   56    0    0    0
SMALL
NO_CHARGES


@<TRIPOS>ATOM
   1 C1             0.7430     1.4281     1.0792 C.2     
   2 C2             0.7753     0.0235     1.1056 C.2     
   3 C3             1.2029    -0.6546    -0.0035 C.2     
   4 C4             1.6023     0.0662    -1.1501 C.2     
   5 C5             1.5633     1.4129    -1.1534 C.2     
   6 N6             1.1386     2.0984    -0.0528 N.pl3   
   7 N7             0.5406     3.5179     1.4532 N.2     
   8 N8             0.3853     2.3469     1.9632 N.2     
   9 C9             0.9947     3.4248     0.2312 C.2     
  10 N10            1.2441    -2.0456    -0.0012 N.pl3   
  11 C11            2.5242    -2.7568    -0.1215 C.3     
  12 C12            2.4272    -3.7541    -1.2803 C.3     
  13 C13            1.2188    -4.6675    -1.0621 C.3     
  14 C14           -0.0603    -3.8275    -1.0395 C.3     
  15 C15            0.0091    -2.8310     0.1277 C.3     
  16 C16            1.1399    -5.6720    -2.1828 C.ar    
  17 C17            1.2060    -7.0244    -1.9046 C.ar    
  18 C18            1.1337    -7.9459    -2.9325 C.ar    
  19 C19            0.9949    -7.5148    -4.2386 C.ar    
  20 C20            0.9279    -6.1624    -4.5167 C.ar    
  21 C21            0.9958    -5.2411    -3.4883 C.ar    
  22 C22            0.3451    -0.7266     2.3398 C.3     
  23 C23            1.3012     4.5730    -0.6955 C.3     
  24 C24            0.0515     4.9212    -1.5067 C.3     
  25 C25            0.1234     6.1423    -2.4258 C.3     
  26 C26            0.1191     4.7340    -3.0237 C.3     
  27 H27            1.9409    -0.4642    -2.0278 H       
  28 H28            1.8713     1.9549    -2.0354 H       
  29 H29            3.3222    -2.0416    -0.3208 H       
  30 H30            2.7332    -3.2920     0.8047 H       
  31 H31            2.3085    -3.2116    -2.2182 H       
  32 H32            3.3354    -4.3555    -1.3197 H       
  33 H33            1.3262    -5.1911    -0.1122 H       
  34 H34           -0.1555    -3.2843    -1.9797 H       
  35 H35           -0.9225    -4.4811    -0.9075 H       
  36 H36            0.0172    -3.3721     1.0738 H       
  37 H37           -0.8529    -2.1647     0.0928 H       
  38 H38            1.3145    -7.3612    -0.8842 H       
  39 H39            1.1861    -9.0025    -2.7152 H       
  40 H40            0.9391    -8.2347    -5.0418 H       
  41 H41            0.8197    -5.8257    -5.5371 H       
  42 H42            0.9397    -4.1846    -3.7052 H       
  43 H43            0.1300    -0.0177     3.1393 H       
  44 H44           -0.5504    -1.3073     2.1184 H       
  45 H45            1.1445    -1.3975     2.6544 H       
  46 H46            1.6080     5.4401    -0.1106 H       
  47 H47            2.1063     4.2883    -1.3729 H       
  48 H48           -0.8998     4.7161    -1.0159 H       
  49 H49           -0.7807     6.7403    -2.5399 H       
  50 H50            1.0610     6.6976    -2.4525 H       
  51 H51            1.0539     4.3627    -3.4438 H       
  52 H52           -0.7879     4.4055    -3.5312 H       
@<TRIPOS>BOND
   1    1    2 1
   2    1    6 1
   3    1    8 2
   4    2    3 2
   5    2   22 1
   6    3    4 1
   7    3   10 1
   8    4    5 2
   9    4   27 1
  10    5    6 1
  11    5   28 1
  12    6    9 1
  13    7    8 1
  14    7    9 2
  15    9   23 1
  16   10   11 1
  17   10   15 1
  18   11   12 1
  19   11   29 1
  20   11   30 1
  21   12   13 1
  22   12   31 1
  23   12   32 1
  24   13   14 1
  25   13   16 1
  26   13   33 1
  27   14   15 1
  28   14   34 1
  29   14   35 1
  30   15   36 1
  31   15   37 1
  32   16   17 ar
  33   16   21 ar
  34   17   18 ar
  35   17   38 1
  36   18   19 ar
  37   18   39 1
  38   19   20 ar
  39   19   40 1
  40   20   21 ar
  41   20   41 1
  42   21   42 1
  43   22   43 1
  44   22   44 1
  45   22   45 1
  46   23   24 1
  47   23   46 1
  48   23   47 1
  49   24   25 1
  50   24   26 1
  51   24   48 1
  52   25   26 1
  53   25   49 1
  54   25   50 1
  55   26   51 1
  56   26   52 1

#	End of record

