#	Name: ASD07300666
#	Creating user name:	WinNT
#	Creation time:	15. 06. 2019 21:10

#	Modifying user name:	WinNT
#	Modification time:	15. 06. 2019 21:10

#	Program:	/corina/corina34_cracker 3.40 0067  02.08.2006

@<TRIPOS>MOLECULE
ASD07300666
  47   49    0    0    0
SMALL
NO_CHARGES


@<TRIPOS>ATOM
   1 C1            -0.5485     2.4654     0.0549 C.2     
   2 C2            -0.5494     1.0493     0.1157 C.2     
   3 N3             0.6551     3.1200     0.0040 N.pl3   
   4 N4             0.5961     0.3975     0.1220 N.2     
   5 C5             1.7636     1.0460     0.0721 C.2     
   6 C6             1.8149     2.3923     0.0133 C.2     
   7 N7            -1.5180     3.3668     0.0398 N.2     
   8 C8            -0.9925     4.5852    -0.0254 C.2     
   9 C9             0.3826     4.4615    -0.0485 C.2     
  10 C10            1.3644     5.5577    -0.1141 C.2     
  11 C11            2.1249     5.8376     0.9478 C.2     
  12 O12            1.4965     6.2842    -1.2548 O.3     
  13 Si13           2.5370     7.5338    -1.1288 Si      
  14 C14            4.2601     6.8816    -0.8527 C.3     
  15 C15            2.4966     8.5363    -2.6985 C.3     
  16 C16            2.0429     8.6108     0.3088 C.3     
  17 N17           -1.7475     0.3543     0.1687 N.pl3   
  18 C18           -1.7744    -1.1154     0.1004 C.3     
  19 C19           -2.6243    -1.6380     1.2642 C.3     
  20 O20           -3.8928    -0.9787     1.2540 O.3     
  21 C21           -3.8189     0.4355     1.4498 C.3     
  22 C22           -3.0297     1.0641     0.3012 C.3     
  23 C23           -1.7639     5.8793    -0.0622 C.3     
  24 H24            2.6839     0.4808     0.0789 H       
  25 H25            2.7695     2.8958    -0.0268 H       
  26 H26            2.8963     6.5900     0.8763 H       
  27 H27            1.9684     5.3114     1.8779 H       
  28 H28            4.5853     6.3294    -1.7345 H       
  29 H29            4.9399     7.7149    -0.6748 H       
  30 H30            4.2635     6.2189     0.0127 H       
  31 H31            1.4884     8.9179    -2.8601 H       
  32 H32            3.1920     9.3714    -2.6143 H       
  33 H33            2.7857     7.9062    -3.5396 H       
  34 H34            1.9796     8.0043     1.2123 H       
  35 H35            2.7876     9.3943     0.4486 H       
  36 H36            1.0724     9.0639     0.1066 H       
  37 H37           -2.2139    -1.4309    -0.8458 H       
  38 H38           -0.7599    -1.5053     0.1827 H       
  39 H39           -2.7715    -2.7124     1.1538 H       
  40 H40           -2.1158    -1.4344     2.2066 H       
  41 H41           -4.8255     0.8530     1.4729 H       
  42 H42           -3.3147     0.6466     2.3928 H       
  43 H43           -2.8461     2.1168     0.5163 H       
  44 H44           -3.5978     0.9717    -0.6245 H       
  45 H45           -1.9245     6.2356     0.9553 H       
  46 H46           -1.1984     6.6236    -0.6228 H       
  47 H47           -2.7268     5.7147    -0.5457 H       
@<TRIPOS>BOND
   1    1    2 1
   2    1    3 1
   3    1    7 2
   4    2    4 2
   5    2   17 1
   6    3    6 1
   7    3    9 1
   8    4    5 1
   9    5    6 2
  10    5   24 1
  11    6   25 1
  12    7    8 1
  13    8    9 2
  14    8   23 1
  15    9   10 1
  16   10   11 2
  17   10   12 1
  18   11   26 1
  19   11   27 1
  20   12   13 1
  21   13   14 1
  22   13   15 1
  23   13   16 1
  24   14   28 1
  25   14   29 1
  26   14   30 1
  27   15   31 1
  28   15   32 1
  29   15   33 1
  30   16   34 1
  31   16   35 1
  32   16   36 1
  33   17   18 1
  34   17   22 1
  35   18   19 1
  36   18   37 1
  37   18   38 1
  38   19   20 1
  39   19   39 1
  40   19   40 1
  41   20   21 1
  42   21   22 1
  43   21   41 1
  44   21   42 1
  45   22   43 1
  46   22   44 1
  47   23   45 1
  48   23   46 1
  49   23   47 1

#	End of record

