#	Name: ASD03091920
#	Creating user name:	WinNT
#	Creation time:	15. 06. 2019 20:31

#	Modifying user name:	WinNT
#	Modification time:	15. 06. 2019 20:31

#	Program:	/corina/corina34_cracker 3.40 0067  02.08.2006

@<TRIPOS>MOLECULE
ASD03091920
  53   57    0    0    0
SMALL
NO_CHARGES


@<TRIPOS>ATOM
   1 C1             0.0096     1.4358     0.1836 C.ar    
   2 C2            -1.1932     2.1640     0.1880 C.ar    
   3 C3            -2.4259     1.4650     0.1389 C.ar    
   4 C4            -2.4320     0.0575     0.0847 C.ar    
   5 C5            -1.2630    -0.6333     0.0808 C.ar    
   6 C6            -0.0342     0.0418     0.1303 C.ar    
   7 O7             1.2132     2.0512     0.2356 O.3     
   8 C8             2.2630     1.3782     0.9311 C.3     
   9 N9             2.3611    -0.0162     0.4971 N.am    
  10 C10            1.2467    -0.6923     0.1338 C.2     
  11 C11           -3.7422    -0.6852     0.0311 C.3     
  12 N12           -4.3592    -0.6863     1.3642 N.3     
  13 C13           -3.4297    -1.2289     2.3779 C.3     
  14 O14            1.2986    -1.8661    -0.1800 O.2     
  15 C15            3.6663    -0.6801     0.4559 C.3     
  16 C16            4.5892     0.0307    -0.5555 C.3     
  17 C17            4.3546    -0.5751     1.8282 C.3     
  18 C18            5.6716     0.1959     1.6027 C.3     
  19 C19            5.4180     1.0115     0.3107 C.3     
  20 O20            4.6328    -1.8810     2.3375 O.3     
  21 C21           -3.6273     2.1924     0.1458 C.ar    
  22 C22           -1.1978     3.5671     0.2402 C.ar    
  23 C23           -2.3825     4.2388     0.2451 C.ar    
  24 C24           -3.5938     3.5528     0.1978 C.ar    
  25 C25           -4.3384    -1.9624     3.3956 C.3     
  26 C26           -5.4193    -2.5745     2.4662 C.3     
  27 C27           -5.5911    -1.4964     1.3756 C.3     
  28 F28           -4.9690    -3.7756     1.9079 F       
  29 F29           -6.6172    -2.7695     3.1621 F       
  30 H30           -1.2794    -1.7124     0.0393 H       
  31 H31            3.2077     1.8837     0.7311 H       
  32 H32            2.0606     1.4074     2.0017 H       
  33 H33           -4.4093    -0.1945    -0.6776 H       
  34 H34           -3.5648    -1.7122    -0.2881 H       
  35 H35           -2.7330    -1.9294     1.9175 H       
  36 H36           -2.8877    -0.4197     2.8674 H       
  37 H37            3.5438    -1.7272     0.1788 H       
  38 H38            5.2428    -0.6897    -1.0473 H       
  39 H39            3.9993     0.5768    -1.2917 H       
  40 H40            3.7175    -0.0302     2.5247 H       
  41 H41            5.8718     0.8625     2.4416 H       
  42 H42            6.5001    -0.4979     1.4595 H       
  43 H43            6.3589     1.2600    -0.1803 H       
  44 H44            4.8451     1.9128     0.5290 H       
  45 H45            5.0673    -1.8819     3.2014 H       
  46 H46           -4.5744     1.6748     0.1096 H       
  47 H47           -0.2657     4.1114     0.2768 H       
  48 H48           -2.3827     5.3180     0.2861 H       
  49 H49           -4.5201     4.1080     0.2025 H       
  50 H50           -3.7869    -2.7427     3.9199 H       
  51 H51           -4.7822    -1.2592     4.1004 H       
  52 H52           -6.4481    -0.8649     1.6101 H       
  53 H53           -5.7320    -1.9707     0.4043 H       
@<TRIPOS>BOND
   1    1    6 ar
   2    1    7 1
   3    1    2 ar
   4    2    3 ar
   5    2   22 ar
   6    3    4 ar
   7    3   21 ar
   8    4    5 ar
   9    4   11 1
  10    5    6 ar
  11    5   30 1
  12    6   10 1
  13    7    8 1
  14    8    9 1
  15    8   31 1
  16    8   32 1
  17    9   10 am
  18    9   15 1
  19   10   14 2
  20   11   12 1
  21   11   33 1
  22   11   34 1
  23   12   27 1
  24   12   13 1
  25   13   25 1
  26   13   35 1
  27   13   36 1
  28   15   17 1
  29   15   16 1
  30   15   37 1
  31   16   19 1
  32   16   38 1
  33   16   39 1
  34   17   18 1
  35   17   20 1
  36   17   40 1
  37   18   19 1
  38   18   41 1
  39   18   42 1
  40   19   43 1
  41   19   44 1
  42   20   45 1
  43   21   24 ar
  44   21   46 1
  45   22   23 ar
  46   22   47 1
  47   23   24 ar
  48   23   48 1
  49   24   49 1
  50   25   26 1
  51   25   50 1
  52   25   51 1
  53   26   27 1
  54   26   28 1
  55   26   29 1
  56   27   52 1
  57   27   53 1

#	End of record

