#	Name: ASD01913087
#	Creating user name:	WinNT
#	Creation time:	15. 06. 2019 20:00

#	Modifying user name:	WinNT
#	Modification time:	15. 06. 2019 20:00

#	Program:	/corina/corina34_cracker 3.40 0067  02.08.2006

@<TRIPOS>MOLECULE
ASD01913087
  28   30    0    0    0
SMALL
NO_CHARGES


@<TRIPOS>ATOM
   1 N1            -0.0169     1.3963     0.0097 N.2     
   2 N2             0.0021    -0.0041     0.0020 N.pl3   
   3 C3             1.2268     1.8293     0.0002 C.2     
   4 C4             2.0821     0.7143    -0.0140 C.2     
   5 C5             1.3050    -0.4067    -0.0126 C.2     
   6 C6             1.7879    -1.8055    -0.0243 C.ar    
   7 C7             1.6521     3.2507     0.0037 C.ar    
   8 C8             0.6907     4.2587     0.0189 C.ar    
   9 C9             1.1013     5.5803     0.0225 C.ar    
  10 C10            2.4642     5.8511     0.0109 C.ar    
  11 C11            3.3646     4.7987    -0.0039 C.ar    
  12 N12            2.9445     3.5501    -0.0020 N.ar    
  13 C13            0.8756    -2.8609    -0.0213 C.ar    
  14 C14            3.1569    -2.0731    -0.0441 C.ar    
  15 F15            2.9064     7.1277     0.0135 F       
  16 C16            1.3309    -4.1630    -0.0322 C.ar    
  17 C17            2.6918    -4.4235    -0.0461 C.ar    
  18 C18            3.6020    -3.3787    -0.0549 C.ar    
  19 F19            3.1326    -5.7005    -0.0562 F       
  20 H20           -0.7746    -0.5852     0.0066 H       
  21 H21            3.1617     0.7403    -0.0242 H       
  22 H22           -0.3607     4.0122     0.0273 H       
  23 H23            0.3788     6.3830     0.0338 H       
  24 H24            4.4248     5.0044    -0.0134 H       
  25 H25           -0.1852    -2.6589    -0.0101 H       
  26 H26            3.8671    -1.2595    -0.0513 H       
  27 H27            0.6254    -4.9807    -0.0295 H       
  28 H28            4.6616    -3.5870    -0.0657 H       
@<TRIPOS>BOND
   1    1    2 1
   2    1    3 2
   3    2    5 1
   4    2   20 1
   5    3    4 1
   6    3    7 1
   7    4    5 2
   8    4   21 1
   9    5    6 1
  10    6   13 ar
  11    6   14 ar
  12    7    8 ar
  13    7   12 ar
  14    8    9 ar
  15    8   22 1
  16    9   10 ar
  17    9   23 1
  18   10   11 ar
  19   10   15 1
  20   11   12 ar
  21   11   24 1
  22   13   16 ar
  23   13   25 1
  24   14   18 ar
  25   14   26 1
  26   16   17 ar
  27   16   27 1
  28   17   18 ar
  29   17   19 1
  30   18   28 1

#	End of record

