#	Name: ASD07301192
#	Creating user name:	WinNT
#	Creation time:	15. 06. 2019 21:11

#	Modifying user name:	WinNT
#	Modification time:	15. 06. 2019 21:11

#	Program:	/corina/corina34_cracker 3.40 0067  02.08.2006

@<TRIPOS>MOLECULE
ASD07301192
  35   36    0    0    0
SMALL
NO_CHARGES


@<TRIPOS>ATOM
   1 C1            -0.0169     1.4661     0.0585 C.2     
   2 C2             0.0021    -0.0040     0.0010 C.2     
   3 C3             1.2715    -0.6339    -0.0633 C.2     
   4 C4             2.3706     0.1578    -0.0672 C.2     
   5 N5             2.2550     1.5070    -0.0114 N.pl3   
   6 N6             1.1280     2.1149     0.0476 N.2     
   7 O7            -1.0314    -0.6546     0.0087 O.2     
   8 C8             3.4243     2.2747    -0.0184 C.ar    
   9 C9             4.6644     1.6552     0.0712 C.ar    
  10 C10            5.8168     2.4160     0.0635 C.ar    
  11 C11            5.7373     3.7933    -0.0333 C.ar    
  12 C12            4.5044     4.4133    -0.1222 C.ar    
  13 C13            3.3482     3.6581    -0.1208 C.ar    
  14 C14           -1.2981     2.2008     0.1211 C.2     
  15 C15           -1.3010     3.6123     0.1759 C.2     
  16 C16           -2.4729     4.2842     0.2332 C.2     
  17 O17           -2.3517     1.5888     0.1255 O.2     
  18 N18           -2.4757     5.6485     0.2862 N.pl3   
  19 C19           -1.2089     6.3843     0.2809 C.3     
  20 C20           -3.7454     6.3765     0.3483 C.3     
  21 H21            1.3589    -1.7094    -0.1074 H       
  22 H22            3.3514    -0.2918    -0.1151 H       
  23 H23            4.7272     0.5797     0.1472 H       
  24 H24            6.7813     1.9350     0.1335 H       
  25 H25            6.6401     4.3860    -0.0391 H       
  26 H26            4.4458     5.4891    -0.1973 H       
  27 H27            2.3858     4.1426    -0.1948 H       
  28 H28           -0.3671     4.1547     0.1721 H       
  29 H29           -3.4068     3.7418     0.2371 H       
  30 H30           -0.9221     6.6066    -0.7469 H       
  31 H31           -1.3274     7.3157     0.8346 H       
  32 H32           -0.4346     5.7781     0.7512 H       
  33 H33           -4.5722     5.6662     0.3428 H       
  34 H34           -3.7807     6.9681     1.2631 H       
  35 H35           -3.8281     7.0370    -0.5149 H       
@<TRIPOS>BOND
   1    1    2 1
   2    1    6 2
   3    1   14 1
   4    2    3 1
   5    2    7 2
   6    3    4 2
   7    3   21 1
   8    4    5 1
   9    4   22 1
  10    5    6 1
  11    5    8 1
  12    8    9 ar
  13    8   13 ar
  14    9   10 ar
  15    9   23 1
  16   10   11 ar
  17   10   24 1
  18   11   12 ar
  19   11   25 1
  20   12   13 ar
  21   12   26 1
  22   13   27 1
  23   14   15 1
  24   14   17 2
  25   15   16 2
  26   15   28 1
  27   16   18 1
  28   16   29 1
  29   18   19 1
  30   18   20 1
  31   19   30 1
  32   19   31 1
  33   19   32 1
  34   20   33 1
  35   20   34 1
  36   20   35 1

#	End of record

