#	Name: ASD07930470
#	Creating user name:	WinNT
#	Creation time:	15. 06. 2019 21:12

#	Modifying user name:	WinNT
#	Modification time:	15. 06. 2019 21:12

#	Program:	/corina/corina34_cracker 3.40 0067  02.08.2006

@<TRIPOS>MOLECULE
ASD07930470
  55   58    0    0    0
SMALL
NO_CHARGES


@<TRIPOS>ATOM
   1 C1            -0.0222     1.5415    -0.0108 C.3     
   2 N2             2.1316     1.2385     2.0337 N.2     
   3 N3             2.7634     3.3787     1.3398 N.pl3   
   4 C4             3.6749     3.8760     0.3039 C.3     
   5 C5             2.8966     4.0681    -1.0051 C.3     
   6 S6             2.1113     2.4844    -1.4404 S.o2    
   7 N7             1.3518     2.0495    -0.0224 N.am    
   8 C8             2.0850     2.1927     1.1470 C.2     
   9 C9             4.8007     2.8634     0.0850 C.3     
  10 C10            4.2603     5.1946     0.7394 C.ar    
  11 C11            3.8295     5.7879     1.9095 C.ar    
  12 C12            4.3697     7.0029     2.3107 C.ar    
  13 C13            5.3422     7.6184     1.5338 C.ar    
  14 C14            5.7703     7.0214     0.3641 C.ar    
  15 C15            5.2342     5.8076    -0.0313 C.ar    
  16 N16            3.9342     7.6062     3.4959 N.am    
  17 C17            4.8019     8.3040     4.2552 C.2     
  18 O18            5.9817     8.3286     3.9632 O.2     
  19 O19            1.0522     2.6843    -2.3664 O.2     
  20 O20            3.0906     1.4754    -1.6454 O.2     
  21 F21            5.6547     5.2251    -1.1754 F       
  22 C22            4.3189     9.0397     5.4435 C.ar    
  23 N23            3.0264     9.0132     5.7639 N.ar    
  24 C24            2.5974     9.6680     6.8212 C.ar    
  25 C25            3.4960    10.3908     7.6077 C.ar    
  26 N26            4.7832    10.4184     7.2903 N.ar    
  27 C27            5.2171     9.7572     6.2328 C.ar    
  28 C28           -0.0005     0.0117    -0.0282 C.3     
  29 C29           -1.3408    -0.7153     0.0988 C.3     
  30 C30           -0.6086    -0.6897    -1.2444 C.3     
  31 O31            3.0526    11.0650     8.6960 O.3     
  32 C32            4.0268    11.7835     9.4555 C.3     
  33 H33           -0.5300     1.8875     0.8895 H       
  34 H34           -0.5523     1.9073    -0.8902 H       
  35 H35            2.6491     1.3558     2.8457 H       
  36 H36            2.6408     3.8807     2.1607 H       
  37 H37            2.1315     4.8325    -0.8690 H       
  38 H38            3.5806     4.3693    -1.7985 H       
  39 H39            4.3761     1.9108    -0.2319 H       
  40 H40            5.4777     3.2335    -0.6850 H       
  41 H41            5.3505     2.7244     1.0159 H       
  42 H42            3.0727     5.3077     2.5121 H       
  43 H43            5.7634     8.5634     1.8438 H       
  44 H44            6.5267     7.4997    -0.2404 H       
  45 H45            3.0078     7.5222     3.7709 H       
  46 H46            1.5492     9.6467     7.0807 H       
  47 H47            6.2655     9.7793     5.9743 H       
  48 H48            0.8694    -0.4514     0.4375 H       
  49 H49           -1.3525    -1.6569     0.6477 H       
  50 H50           -2.2380    -0.1038     0.1947 H       
  51 H51           -1.0241    -0.0613    -2.0322 H       
  52 H52           -0.1387    -1.6145    -1.5791 H       
  53 H53            3.5400    12.2769    10.2967 H       
  54 H54            4.7809    11.0902     9.8277 H       
  55 H55            4.5024    12.5316     8.8212 H       
@<TRIPOS>BOND
   1    1   28 1
   2    1    7 1
   3    1   33 1
   4    1   34 1
   5    2    8 2
   6    2   35 1
   7    3    4 1
   8    3    8 1
   9    3   36 1
  10    4    5 1
  11    4    9 1
  12    4   10 1
  13    5    6 1
  14    5   37 1
  15    5   38 1
  16    6    7 am
  17    6   19 2
  18    6   20 2
  19    7    8 1
  20    9   39 1
  21    9   40 1
  22    9   41 1
  23   10   11 ar
  24   10   15 ar
  25   11   12 ar
  26   11   42 1
  27   12   13 ar
  28   12   16 1
  29   13   14 ar
  30   13   43 1
  31   14   15 ar
  32   14   44 1
  33   15   21 1
  34   16   17 am
  35   16   45 1
  36   17   18 2
  37   17   22 1
  38   22   23 ar
  39   22   27 ar
  40   23   24 ar
  41   24   25 ar
  42   24   46 1
  43   25   26 ar
  44   25   31 1
  45   26   27 ar
  46   27   47 1
  47   28   29 1
  48   28   30 1
  49   28   48 1
  50   29   30 1
  51   29   49 1
  52   29   50 1
  53   30   51 1
  54   30   52 1
  55   31   32 1
  56   32   53 1
  57   32   54 1
  58   32   55 1

#	End of record

