#	Name: ASD02198190
#	Creating user name:	WinNT
#	Creation time:	15. 06. 2019 20:19

#	Modifying user name:	WinNT
#	Modification time:	15. 06. 2019 20:19

#	Program:	/corina/corina34_cracker 3.40 0067  02.08.2006

@<TRIPOS>MOLECULE
ASD02198190
  39   42    0    0    0
SMALL
NO_CHARGES


@<TRIPOS>ATOM
   1 C1            -0.0166     1.3753     0.0096 C.2     
   2 C2             0.0021    -0.0041     0.0020 C.2     
   3 C3            -1.1878    -0.8008     0.0091 C.1     
   4 S4             1.5675     2.0054    -0.0021 S.3     
   5 C5             2.2772     0.3990    -0.0175 C.2     
   6 C6             1.2824    -0.5520    -0.0132 C.2     
   7 C7             3.6579     0.1249    -0.0322 C.2     
   8 C8             4.6308     1.2351    -0.0350 C.2     
   9 O9             4.0505    -1.0301    -0.0426 O.2     
  10 N10            1.5294    -1.9154    -0.0224 N.pl3   
  11 N11           -1.1593     2.1393     0.0194 N.pl3   
  12 N12           -2.1317    -1.4328     0.0147 N.1     
  13 C13           -1.0630     3.6011     0.0268 C.3     
  14 O14            4.3523     2.5520    -0.0242 O.3     
  15 N15            5.3581     3.2224    -0.0300 N.2     
  16 C16            6.4373     2.4802    -0.0451 C.2     
  17 C17            5.9936     1.1303    -0.0430 C.2     
  18 C18            7.8438     2.9548    -0.0560 C.ar    
  19 C19            8.1210     4.3201    -0.0499 C.ar    
  20 C20            8.8914     2.0365    -0.0666 C.ar    
  21 C21           10.1973     2.4832    -0.0768 C.ar    
  22 C22           10.4668     3.8399    -0.0760 C.ar    
  23 C23            9.4306     4.7559    -0.0602 C.ar    
  24 C24           -2.2467     4.3899    -0.5366 C.3     
  25 C25           -1.9923     4.3654     0.9719 C.3     
  26 H26            2.4424    -2.2428    -0.0326 H       
  27 H27            0.7893    -2.5424    -0.0187 H       
  28 H28           -2.0294     1.7105     0.0213 H       
  29 H29           -0.0646     4.0073    -0.1353 H       
  30 H30            6.5928     0.2319    -0.0522 H       
  31 H31            7.3126     5.0362    -0.0376 H       
  32 H32            8.6821     0.9770    -0.0665 H       
  33 H33           11.0102     1.7721    -0.0850 H       
  34 H34           11.4901     4.1851    -0.0832 H       
  35 H35            9.6465     5.8141    -0.0596 H       
  36 H36           -2.0271     5.3153    -1.0691 H       
  37 H37           -3.0971     3.8212    -0.9129 H       
  38 H38           -2.6753     3.7807     1.5881 H       
  39 H39           -1.6053     5.2747     1.4318 H       
@<TRIPOS>BOND
   1    1    2 2
   2    1    4 1
   3    1   11 1
   4    2    3 1
   5    2    6 1
   6    3   12 3
   7    4    5 1
   8    5    6 2
   9    5    7 1
  10    6   10 1
  11    7    8 1
  12    7    9 2
  13    8   14 1
  14    8   17 2
  15   10   26 1
  16   10   27 1
  17   11   13 1
  18   11   28 1
  19   13   24 1
  20   13   25 1
  21   13   29 1
  22   14   15 1
  23   15   16 2
  24   16   17 1
  25   16   18 1
  26   17   30 1
  27   18   19 ar
  28   18   20 ar
  29   19   23 ar
  30   19   31 1
  31   20   21 ar
  32   20   32 1
  33   21   22 ar
  34   21   33 1
  35   22   23 ar
  36   22   34 1
  37   23   35 1
  38   24   25 1
  39   24   36 1
  40   24   37 1
  41   25   38 1
  42   25   39 1

#	End of record

