#	Name: ASD01820174
#	Creating user name:	WinNT
#	Creation time:	15. 06. 2019 19:36

#	Modifying user name:	WinNT
#	Modification time:	15. 06. 2019 19:36

#	Program:	/corina/corina34_cracker 3.40 0067  02.08.2006

@<TRIPOS>MOLECULE
ASD01820174
  90   93    0    0    0
SMALL
NO_CHARGES


@<TRIPOS>ATOM
   1 C1            -0.0170     1.4052     0.0098 C.ar    
   2 C2             0.0021    -0.0041     0.0020 C.ar    
   3 C3            -1.4140    -0.4278     0.0132 C.2     
   4 N4            -2.1901     0.6709     0.0266 N.am    
   5 C5            -1.4440     1.7903     0.0313 C.2     
   6 C6            -3.6549     0.6509     0.0400 C.3     
   7 C7            -4.1515     0.6366     1.4871 C.3     
   8 C8            -5.6813     0.6158     1.5011 C.3     
   9 N9            -6.1581     0.6020     2.8905 N.4     
  10 C10           -7.6269     0.5820     2.9040 C.3     
  11 C11           -8.1235     0.5676     4.3511 C.3     
  12 C12           -9.6533     0.5468     4.3651 C.3     
  13 C13          -10.1499     0.5325     5.8122 C.3     
  14 C14          -11.6797     0.5116     5.8262 C.3     
  15 C15          -12.1763     0.4973     7.2733 C.3     
  16 N16          -13.6451     0.4773     7.2868 N.4     
  17 C17          -14.1219     0.4635     8.6762 C.3     
  18 C18          -15.6517     0.4427     8.6902 C.3     
  19 N19          -17.6131     0.4084    10.1508 N.am    
  20 O20           -1.8714     2.9270     0.0430 O.2     
  21 O21           -1.8104    -1.5758     0.0109 O.2     
  22 C22          -16.1483     0.4283    10.1373 C.3     
  23 C23          -18.3591    -0.7110    10.1524 C.2     
  24 C24          -19.7862    -0.3260    10.1683 C.ar    
  25 C25          -19.8053     1.0833    10.1756 C.ar    
  26 C26          -18.3892     1.5070    10.1689 C.2     
  27 C27          -20.9788    -1.0313    10.1764 C.ar    
  28 C28          -22.1830    -0.3450    10.1916 C.ar    
  29 C29          -22.2017     1.0371    10.1988 C.ar    
  30 C30          -21.0166     1.7560    10.1912 C.ar    
  31 O31          -17.9317    -1.8478    10.1421 O.2     
  32 O32          -17.9927     2.6550    10.1727 O.2     
  33 C33          -14.1574     1.6735     6.6052 C.3     
  34 C34          -14.1248    -0.7251     6.5925 C.3     
  35 C35           -5.6458    -0.5942     3.5722 C.3     
  36 C36           -5.6784     1.8044     3.5848 C.3     
  37 C37            1.1756     2.1106     0.0022 C.ar    
  38 C38            2.3798     1.4243    -0.0130 C.ar    
  39 C39            2.3986     0.0422    -0.0211 C.ar    
  40 C40            1.2134    -0.6767    -0.0132 C.ar    
  41 C41          -23.5198     1.7675    10.2149 C.3     
  42 F42          -24.5670     0.8398    10.2200 F       
  43 F43          -23.5973     2.5646    11.3620 F       
  44 F44          -23.6188     2.5762     9.0776 F       
  45 C45            3.6776     2.1903    -0.0213 C.3     
  46 F46            4.0918     2.4202     1.2951 F       
  47 F47            4.6534     1.4472    -0.6941 F       
  48 F48            3.4924     3.4146    -0.6725 F       
  49 H49           -4.0350     1.5385    -0.4658 H       
  50 H50           -4.0109    -0.2412    -0.4752 H       
  51 H51           -3.7714    -0.2510     1.9929 H       
  52 H52           -3.7955     1.5288     2.0022 H       
  53 H53           -6.0614     1.5034     0.9953 H       
  54 H54           -6.0373    -0.2764     0.9860 H       
  55 H55           -8.0070     1.4696     2.3982 H       
  56 H56           -7.9829    -0.3102     2.3888 H       
  57 H57           -7.7434    -0.3200     4.8569 H       
  58 H58           -7.7675     1.4598     4.8662 H       
  59 H59          -10.0334     1.4344     3.8593 H       
  60 H60          -10.0093    -0.3454     3.8500 H       
  61 H61           -9.7698    -0.3551     6.3180 H       
  62 H62           -9.7939     1.4246     6.3274 H       
  63 H63          -12.0598     1.3992     5.3205 H       
  64 H64          -12.0357    -0.3806     5.3111 H       
  65 H65          -11.7962    -0.3903     7.7791 H       
  66 H66          -11.8203     1.3895     7.7885 H       
  67 H67          -13.7418    -0.4241     9.1820 H       
  68 H68          -13.7659     1.3557     9.1914 H       
  69 H69          -16.0318     1.3303     8.1845 H       
  70 H70          -16.0077    -0.4495     8.1751 H       
  71 H71          -15.7682    -0.4593    10.6431 H       
  72 H72          -15.7923     1.3205    10.6525 H       
  73 H73          -20.9702    -2.1113    10.1704 H       
  74 H74          -23.1131    -0.8939    10.1975 H       
  75 H75          -21.0373     2.8358    10.1969 H       
  76 H76          -13.8036     1.6837     5.5742 H       
  77 H77          -15.2472     1.6587     6.6152 H       
  78 H78          -13.8014     2.5657     7.1203 H       
  79 H79          -13.7447    -1.6127     7.0983 H       
  80 H80          -15.2147    -0.7400     6.6025 H       
  81 H81          -13.7710    -0.7149     5.5616 H       
  82 H82           -4.5560    -0.5794     3.5622 H       
  83 H83           -5.9996    -0.6045     4.6031 H       
  84 H84           -6.0018    -1.4864     3.0570 H       
  85 H85           -6.0585     2.6920     3.0790 H       
  86 H86           -6.0321     1.7942     4.6157 H       
  87 H87           -4.5885     1.8192     3.5748 H       
  88 H88            1.1670     3.1906     0.0077 H       
  89 H89            3.3432    -0.4813    -0.0333 H       
  90 H90            1.2341    -1.7565    -0.0195 H       
@<TRIPOS>BOND
   1    1    2 ar
   2    1   37 ar
   3    1    5 1
   4    2    3 1
   5    2   40 ar
   6    3    4 am
   7    3   21 2
   8    4    5 am
   9    4    6 1
  10    5   20 2
  11    6    7 1
  12    6   49 1
  13    6   50 1
  14    7    8 1
  15    7   51 1
  16    7   52 1
  17    8    9 1
  18    8   53 1
  19    8   54 1
  20    9   10 1
  21    9   35 1
  22    9   36 1
  23   10   11 1
  24   10   55 1
  25   10   56 1
  26   11   12 1
  27   11   57 1
  28   11   58 1
  29   12   13 1
  30   12   59 1
  31   12   60 1
  32   13   14 1
  33   13   61 1
  34   13   62 1
  35   14   15 1
  36   14   63 1
  37   14   64 1
  38   15   16 1
  39   15   65 1
  40   15   66 1
  41   16   17 1
  42   16   33 1
  43   16   34 1
  44   17   18 1
  45   17   67 1
  46   17   68 1
  47   18   22 1
  48   18   69 1
  49   18   70 1
  50   19   23 am
  51   19   22 1
  52   19   26 am
  53   22   71 1
  54   22   72 1
  55   23   24 1
  56   23   31 2
  57   24   25 ar
  58   24   27 ar
  59   25   26 1
  60   25   30 ar
  61   26   32 2
  62   27   28 ar
  63   27   73 1
  64   28   29 ar
  65   28   74 1
  66   29   30 ar
  67   29   41 1
  68   30   75 1
  69   33   76 1
  70   33   77 1
  71   33   78 1
  72   34   79 1
  73   34   80 1
  74   34   81 1
  75   35   82 1
  76   35   83 1
  77   35   84 1
  78   36   85 1
  79   36   86 1
  80   36   87 1
  81   37   38 ar
  82   37   88 1
  83   38   39 ar
  84   38   45 1
  85   39   40 ar
  86   39   89 1
  87   40   90 1
  88   41   42 1
  89   41   43 1
  90   41   44 1
  91   45   46 1
  92   45   47 1
  93   45   48 1

#	End of record

