#	Name: ASD04590418
#	Creating user name:	WinNT
#	Creation time:	15. 06. 2019 20:50

#	Modifying user name:	WinNT
#	Modification time:	15. 06. 2019 20:50

#	Program:	/corina/corina34_cracker 3.40 0067  02.08.2006

@<TRIPOS>MOLECULE
ASD04590418
  42   45    0    0    0
SMALL
NO_CHARGES


@<TRIPOS>ATOM
   1 C1            -0.0167     1.3832     0.0096 C.ar    
   2 C2             0.0021    -0.0041     0.0020 C.ar    
   3 C3             2.4020     0.0223    -0.0208 C.ar    
   4 C4             2.3769     1.4283    -0.0130 C.ar    
   5 C5             1.1624     2.0986     0.0022 C.ar    
   6 N6             3.7040    -0.3552    -0.0358 N.2     
   7 C7             4.4709     0.7083    -0.0376 C.2     
   8 N8             3.6969     1.8375    -0.0239 N.pl3   
   9 C9             5.9482     0.6906    -0.0516 C.2     
  10 C10            6.7657    -0.4631    -0.0656 C.2     
  11 C11            8.0579    -0.0540    -0.0760 C.2     
  12 N12            8.0646     1.3050    -0.0689 N.pl3   
  13 N13            6.7360     1.7480    -0.0590 N.2     
  14 N14            6.3188    -1.7944    -0.0682 N.am    
  15 C15            7.2108    -2.8046    -0.0822 C.2     
  16 O16            8.4027    -2.5633    -0.0925 O.2     
  17 C17            6.7414    -4.2032    -0.0849 C.ar    
  18 C18            1.1969    -0.6870    -0.0131 C.ar    
  19 C19            6.0892    -6.1867     1.1112 C.ar    
  20 C20            5.8588    -6.8322    -0.0902 C.ar    
  21 C21            6.0714    -6.1760    -1.2889 C.ar    
  22 C22            6.5112    -4.8657    -1.2956 C.ar    
  23 C23            6.5292    -4.8765     1.1230 C.ar    
  24 F24            6.7542    -4.2480     2.2975 F       
  25 F25            6.7179    -4.2263    -2.4676 F       
  26 S26           -1.5158    -0.8988     0.0124 S.o2    
  27 O27           -1.1837    -2.1456     0.6076 O.2     
  28 O28           -2.4397    -0.0143     0.6316 O.2     
  29 C29           -1.9233    -1.1192    -1.7415 C.3     
  30 H30           -0.9614     1.9066     0.0170 H       
  31 H31            1.1403     3.1784     0.0079 H       
  32 H32            4.0155     2.7537    -0.0221 H       
  33 H33            8.9276    -0.6942    -0.0872 H       
  34 H34            8.8529     1.8702    -0.0736 H       
  35 H35            5.3681    -1.9869    -0.0600 H       
  36 H36            1.2037    -1.7669    -0.0186 H       
  37 H37            5.9203    -6.7064     2.0427 H       
  38 H38            5.5151    -7.8560    -0.0922 H       
  39 H39            5.8893    -6.6875    -2.2225 H       
  40 H40           -1.1257    -1.6767    -2.2325 H       
  41 H41           -2.8596    -1.6700    -1.8305 H       
  42 H42           -2.0294    -0.1433    -2.2153 H       
@<TRIPOS>BOND
   1    1    2 ar
   2    1    5 ar
   3    1   30 1
   4    2   18 ar
   5    2   26 1
   6    3    4 ar
   7    3    6 1
   8    3   18 ar
   9    4    5 ar
  10    4    8 1
  11    5   31 1
  12    6    7 2
  13    7    8 1
  14    7    9 1
  15    8   32 1
  16    9   10 1
  17    9   13 2
  18   10   11 2
  19   10   14 1
  20   11   12 1
  21   11   33 1
  22   12   13 1
  23   12   34 1
  24   14   15 am
  25   14   35 1
  26   15   16 2
  27   15   17 1
  28   17   23 ar
  29   17   22 ar
  30   18   36 1
  31   19   20 ar
  32   19   23 ar
  33   19   37 1
  34   20   21 ar
  35   20   38 1
  36   21   22 ar
  37   21   39 1
  38   22   25 1
  39   23   24 1
  40   26   27 2
  41   26   28 2
  42   26   29 1
  43   29   40 1
  44   29   41 1
  45   29   42 1

#	End of record

