#	Name: ASD06600083
#	Creating user name:	WinNT
#	Creation time:	15. 06. 2019 21:07

#	Modifying user name:	WinNT
#	Modification time:	15. 06. 2019 21:07

#	Program:	/corina/corina34_cracker 3.40 0067  02.08.2006

@<TRIPOS>MOLECULE
ASD06600083
 248  248    0    0    0
SMALL
NO_CHARGES


@<TRIPOS>ATOM
   1 C1             0.5254     2.6628     0.5459 C.2     
   2 O2             0.3724     1.4598     0.5309 O.2     
   3 N3             2.8817     2.2213     0.9229 N.am    
   4 C4             1.9148     3.2460     0.5215 C.3     
   5 C5             2.2406     3.7284    -0.8934 C.3     
   6 C6             1.3112     4.8857    -1.2644 C.3     
   7 C7             1.6112     6.0884    -0.3676 C.3     
   8 C8             1.5365     5.2718    -2.7276 C.3     
   9 C9            -2.8404     3.9563    -0.0549 C.2     
  10 O10           -2.4255     5.0584    -0.3449 O.2     
  11 N11           -0.5472     3.4782     0.5789 N.am    
  12 C12           -1.8974     2.9162     0.4928 C.3     
  13 C13           -2.3622     2.4900     1.8868 C.3     
  14 O14           -2.4853     3.6435     2.7213 O.3     
  15 C15           -6.4644     4.3713    -0.2944 C.2     
  16 O16           -6.6775     3.4068     0.4094 O.2     
  17 N17           -4.1449     3.6617    -0.2226 N.am    
  18 C18           -5.0616     4.6727    -0.7551 C.3     
  19 C19           -5.0114     4.6519    -2.2841 C.3     
  20 C20           -3.6197     5.0795    -2.7545 C.3     
  21 C21           -3.5695     5.0587    -4.2836 C.3     
  22 N22           -2.2369     5.4681    -4.7340 N.pl3   
  23 C23           -1.9531     5.5254    -6.0780 C.2     
  24 N24           -0.7675     5.8897    -6.4788 N.2     
  25 N25           -2.9198     5.1985    -6.9993 N.pl3   
  26 C26           -9.8452     5.5769    -1.0427 C.2     
  27 O27           -9.5224     6.4921    -1.7701 O.2     
  28 N28           -7.4823     5.1734    -0.6646 N.am    
  29 C29           -8.8267     4.9454    -0.1289 C.3     
  30 C30           -8.9337     5.5705     1.2635 C.3     
  31 C31          -10.2900     5.2183     1.8777 C.3     
  32 C32          -10.3520     3.7138     2.1487 C.3     
  33 C33          -10.4681     5.9811     3.1920 C.3     
  34 C34          -13.4787     5.4275    -1.5088 C.2     
  35 O35          -13.6739     4.6326    -0.6138 O.2     
  36 N36          -11.1148     5.1247    -1.0514 N.am    
  37 C37          -12.0787     5.6662    -2.0127 C.3     
  38 C38          -11.8973     4.9710    -3.3635 C.3     
  39 C39          -12.8026     5.6337    -4.4037 C.3     
  40 C40          -12.3123     7.0577    -4.6734 C.3     
  41 C41          -12.7632     4.8261    -5.7026 C.3     
  42 C42          -16.8809     6.2435    -2.5683 C.2     
  43 O43          -16.5173     6.5661    -3.6794 O.2     
  44 N44          -14.5140     6.0973    -2.0528 N.am    
  45 C45          -15.8618     5.9357    -1.5017 C.3     
  46 C46          -16.0498     6.8950    -0.3246 C.3     
  47 C47          -14.9392     6.6659     0.7025 C.3     
  48 O48          -15.9929     8.2431    -0.7950 O.3     
  49 C49          -20.4763     6.8951    -2.6766 C.2     
  50 O50          -20.5592     6.9503    -1.4679 O.2     
  51 N51          -18.1965     6.1603    -2.2874 N.am    
  52 C52          -19.1872     6.4595    -3.3243 C.3     
  53 C53          -19.4376     5.2072    -4.1669 C.3     
  54 C54          -18.1598     4.8372    -4.9227 C.3     
  55 C55          -18.4102     3.5849    -5.7654 C.3     
  56 C56          -17.1324     3.2149    -6.5212 C.3     
  57 N57          -17.3728     2.0126    -7.3303 N.3     
  58 C58          -23.9402     7.3689    -3.7441 C.2     
  59 O59          -23.7335     6.8663    -4.8284 O.2     
  60 N60          -21.5370     7.2235    -3.4405 N.am    
  61 C61          -22.7901     7.6470    -2.8109 C.3     
  62 C62          -22.7285     9.1459    -2.5100 C.3     
  63 C63          -21.6413     9.4124    -1.4670 C.3     
  64 C64          -21.4941    10.9209    -1.2578 C.3     
  65 C65          -22.0301     8.7496    -0.1440 C.3     
  66 C66          -27.6058     7.8438    -3.6333 C.2     
  67 O67          -27.5919     8.3321    -2.5232 O.2     
  68 N68          -25.1986     7.6786    -3.3738 N.am    
  69 C69          -26.3167     7.4081    -4.2810 C.3     
  70 C70          -31.1733     7.3296    -4.2424 C.2     
  71 O71          -30.9640     6.4984    -5.1004 O.2     
  72 N72          -28.7740     7.6908    -4.2876 N.am    
  73 C73          -30.0272     8.1144    -3.6580 C.3     
  74 C74          -30.2477     9.6066    -3.9141 C.3     
  75 O75          -30.4344     9.8272    -5.3135 O.3     
  76 C76          -34.8204     7.5784    -4.2348 C.2     
  77 O77          -34.8334     8.5923    -3.5694 O.2     
  78 N78          -32.4310     7.5515    -3.8117 N.am    
  79 C79          -33.5452     6.7886    -4.3798 C.3     
  80 C80          -33.6825     5.4575    -3.6381 C.3     
  81 C81          -32.3944     4.6480    -3.8003 C.3     
  82 O82          -33.9167     5.7072    -2.2507 O.3     
  83 C83          -38.2652     7.2909    -5.5481 C.2     
  84 O84          -38.0633     6.2169    -6.0741 O.2     
  85 N85          -35.9464     7.1580    -4.8445 N.am    
  86 C86          -37.1573     7.9813    -4.7951 C.3     
  87 C87          -40.3363     7.1526    -7.8040 C.2     
  88 O88          -39.2533     7.4767    -8.2305 O.2     
  89 N89          -39.4804     7.8669    -5.6368 N.am    
  90 C90          -40.6453     7.3063    -6.3371 C.3     
  91 C91          -41.8138     8.2964    -6.1477 C.3     
  92 C92          -41.3997     9.0838    -4.8766 C.3     
  93 C93          -39.8636     9.1604    -5.0424 C.3     
  94 O94          -41.2643     6.6557    -8.6369 O.3     
  95 C95            4.0317     2.5797     1.5275 C.2     
  96 O96            4.3081     3.7534     1.6576 O.2     
  97 C97           20.2066    -1.3067    10.1562 C.3     
  98 C98           19.2499    -0.2330     9.6340 C.3     
  99 C99           18.0306    -0.9026     8.9970 C.3     
 100 C100          17.0738     0.1711     8.4748 C.3     
 101 C101          15.8545    -0.4985     7.8378 C.3     
 102 C102          14.8977     0.5752     7.3156 C.3     
 103 C103          13.6784    -0.0943     6.6786 C.3     
 104 C104          12.7216     0.9794     6.1564 C.3     
 105 C105          11.5023     0.3098     5.5194 C.3     
 106 C106          10.5455     1.3835     4.9972 C.3     
 107 C107           9.3262     0.7139     4.3602 C.3     
 108 C108           8.3695     1.7876     3.8380 C.3     
 109 C109           7.1501     1.1180     3.2010 C.3     
 110 C110           6.1934     2.1918     2.6789 C.3     
 111 C111           4.9740     1.5222     2.0418 C.3     
 112 H112           2.6943     1.2847     0.7536 H       
 113 H113           1.9681     4.0867     1.2133 H       
 114 H114           3.2760     4.0670    -0.9324 H       
 115 H115           2.0996     2.9089    -1.5981 H       
 116 H116           0.2747     4.5783    -1.1252 H       
 117 H117           2.6262     6.4382    -0.5564 H       
 118 H118           0.9045     6.8892    -0.5852 H       
 119 H119           1.5168     5.7946     0.6778 H       
 120 H120           1.3228     4.4150    -3.3666 H       
 121 H121           0.8744     6.0963    -2.9920 H       
 122 H122           2.5730     5.5792    -2.8668 H       
 123 H123          -0.4252     4.4371     0.6595 H       
 124 H124          -1.8888     2.0495    -0.1681 H       
 125 H125          -3.3286     1.9917     1.8110 H       
 126 H126          -1.6330     1.8049     2.3193 H       
 127 H127          -2.7769     3.4479     3.6223 H       
 128 H128          -4.4767     2.7802     0.0094 H       
 129 H129          -4.7648     5.6579    -0.3952 H       
 130 H130          -5.2216     3.6437    -2.6409 H       
 131 H131          -5.7568     5.3408    -2.6815 H       
 132 H132          -3.4095     6.0878    -2.3978 H       
 133 H133          -2.8743     4.3907    -2.3571 H       
 134 H134          -3.7797     4.0504    -4.6403 H       
 135 H135          -4.3149     5.7476    -4.6810 H       
 136 H136          -1.5549     5.6988    -4.0840 H       
 137 H137          -0.5673     5.9301    -7.4270 H       
 138 H138          -3.8021     4.9274    -6.7010 H       
 139 H139          -2.7196     5.2389    -7.9475 H       
 140 H140          -7.3247     5.9017    -1.2856 H       
 141 H141          -9.0140     3.8738    -0.0615 H       
 142 H142          -8.1361     5.1835     1.8977 H       
 143 H143          -8.8412     6.6536     1.1836 H       
 144 H144         -11.0853     5.4960     1.1858 H       
 145 H145         -10.1486     3.1698     1.2263 H       
 146 H146          -9.6068     3.4487     2.8987 H       
 147 H147         -11.3447     3.4510     2.5141 H       
 148 H148         -10.4240     7.0529     2.9989 H       
 149 H149         -11.4344     5.7302     3.6296 H       
 150 H150          -9.6729     5.7034     3.8838 H       
 151 H151         -11.3904     4.4406    -0.4213 H       
 152 H152         -11.9123     6.7370    -2.1299 H       
 153 H153         -10.8576     5.0566    -3.6794 H       
 154 H154         -12.1628     3.9181    -3.2688 H       
 155 H155         -13.8250     5.6666    -4.0273 H       
 156 H156         -12.8980     7.4967    -5.4811 H       
 157 H157         -12.4288     7.6589    -3.7718 H       
 158 H158         -11.2609     7.0318    -4.9596 H       
 159 H159         -13.1125     3.8116    -5.5105 H       
 160 H160         -13.4081     5.2982    -6.4437 H       
 161 H161         -11.7407     4.7931    -6.0790 H       
 162 H162         -14.3668     6.6864    -2.8092 H       
 163 H163         -15.9934     4.9095    -1.1586 H       
 164 H164         -17.0184     6.7132     0.1410 H       
 165 H165         -13.9705     6.8476     0.2368 H       
 166 H166         -15.0731     7.3492     1.5410 H       
 167 H167         -14.9826     5.6375     1.0613 H       
 168 H168         -15.1570     8.4757    -1.2220 H       
 169 H169         -18.4873     5.9023    -1.3987 H       
 170 H170         -18.8136     7.2591    -3.9639 H       
 171 H171         -19.7260     4.3825    -3.5153 H       
 172 H172         -20.2379     5.4035    -4.8805 H       
 173 H173         -17.8714     5.6619    -5.5744 H       
 174 H174         -17.3595     4.6409    -4.2092 H       
 175 H175         -18.6986     2.7602    -5.1137 H       
 176 H176         -19.2105     3.7812    -6.4789 H       
 177 H177         -16.8440     4.0397    -7.1729 H       
 178 H178         -16.3321     3.0187    -5.8077 H       
 179 H179         -16.5431     1.7476    -7.8395 H       
 180 H180         -17.7038     1.2511    -6.7569 H       
 181 H181         -21.4706     7.1794    -4.4073 H       
 182 H182         -22.9345     7.0955    -1.8819 H       
 183 H183         -22.4959     9.6909    -3.4248 H       
 184 H184         -23.6919     9.4788    -2.1237 H       
 185 H185         -20.6945     8.9999    -1.8156 H       
 186 H186         -22.4409    11.3334    -0.9092 H       
 187 H187         -20.7195    11.1108    -0.5148 H       
 188 H188         -21.2170    11.3931    -2.2003 H       
 189 H189         -22.9769     9.1621     0.2045 H       
 190 H190         -22.1350     7.6749    -0.2931 H       
 191 H191         -21.2555     8.9395     0.5990 H       
 192 H192         -25.3639     8.0805    -2.5066 H       
 193 H193         -26.3605     6.3403    -4.4954 H       
 194 H194         -26.1723     7.9596    -5.2100 H       
 195 H195         -28.7851     7.3003    -5.1755 H       
 196 H196         -29.9735     7.9340    -2.5844 H       
 197 H197         -31.1324     9.9413    -3.3723 H       
 198 H198         -29.3779    10.1666    -3.5708 H       
 199 H199         -30.5800    10.7536    -5.5497 H       
 200 H200         -32.5984     8.2163    -3.1254 H       
 201 H201         -33.3539     6.5980    -5.4359 H       
 202 H202         -34.5195     4.8954    -4.0524 H       
 203 H203         -31.5763     5.1620    -3.2958 H       
 204 H204         -32.5286     3.6596    -3.3607 H       
 205 H205         -32.1606     4.5456    -4.8600 H       
 206 H206         -34.7188     6.2171    -2.0728 H       
 207 H207         -35.9552     6.3104    -5.3161 H       
 208 H208         -36.9566     8.9504    -5.2518 H       
 209 H209         -37.4575     8.1240    -3.7570 H       
 210 H210         -40.9041     6.3377    -5.9094 H       
 211 H211         -41.8963     8.9642    -7.0052 H       
 212 H212         -42.7493     7.7618    -5.9825 H       
 213 H213         -41.8440    10.0791    -4.8714 H       
 214 H214         -41.6648     8.5346    -3.9731 H       
 215 H215         -39.3829     9.2896    -4.0727 H       
 216 H216         -39.5969     9.9790    -5.7110 H       
 217 H217         -41.0200     6.5759    -9.5691 H       
 218 H218          21.0753    -0.8297    10.6100 H       
 219 H219          19.6963    -1.9167    10.9016 H       
 220 H220          20.5299    -1.9387     9.3290 H       
 221 H221          18.9266     0.3990    10.4612 H       
 222 H222          19.7602     0.3770     8.8886 H       
 223 H223          18.3538    -1.5346     8.1698 H       
 224 H224          17.5202    -1.5126     9.7424 H       
 225 H225          16.7505     0.8031     9.3020 H       
 226 H226          17.5841     0.7811     7.7294 H       
 227 H227          16.1777    -1.1304     7.0106 H       
 228 H228          15.3441    -1.1085     8.5832 H       
 229 H229          14.5744     1.2072     8.1428 H       
 230 H230          15.4081     1.1852     6.5703 H       
 231 H231          14.0016    -0.7263     5.8514 H       
 232 H232          13.1680    -0.7043     7.4240 H       
 233 H233          12.3984     1.6113     6.9836 H       
 234 H234          13.2320     1.5894     5.4111 H       
 235 H235          11.8256    -0.3222     4.6922 H       
 236 H236          10.9920    -0.3002     6.2648 H       
 237 H237          10.2223     2.0155     5.8244 H       
 238 H238          11.0559     1.9935     4.2519 H       
 239 H239           9.6495     0.0819     3.5331 H       
 240 H240           8.8159     0.1039     5.1056 H       
 241 H241           8.0462     2.4196     4.6652 H       
 242 H242           8.8798     2.3976     3.0927 H       
 243 H243           7.4734     0.4861     2.3739 H       
 244 H244           6.6398     0.5081     3.9464 H       
 245 H245           5.8701     2.8237     3.5060 H       
 246 H246           6.7037     2.8017     1.9335 H       
 247 H247           4.4637     0.9122     2.7872 H       
 248 H248           5.2973     0.8902     1.2147 H       
@<TRIPOS>BOND
   1    1    2 2
   2    1    4 1
   3    1   11 am
   4    3   95 am
   5    3    4 1
   6    3  112 1
   7    4    5 1
   8    4  113 1
   9    5    6 1
  10    5  114 1
  11    5  115 1
  12    6    7 1
  13    6    8 1
  14    6  116 1
  15    7  117 1
  16    7  118 1
  17    7  119 1
  18    8  120 1
  19    8  121 1
  20    8  122 1
  21    9   10 2
  22    9   12 1
  23    9   17 am
  24   11   12 1
  25   11  123 1
  26   12   13 1
  27   12  124 1
  28   13   14 1
  29   13  125 1
  30   13  126 1
  31   14  127 1
  32   15   16 2
  33   15   18 1
  34   15   28 am
  35   17   18 1
  36   17  128 1
  37   18   19 1
  38   18  129 1
  39   19   20 1
  40   19  130 1
  41   19  131 1
  42   20   21 1
  43   20  132 1
  44   20  133 1
  45   21   22 1
  46   21  134 1
  47   21  135 1
  48   22   23 1
  49   22  136 1
  50   23   24 2
  51   23   25 1
  52   24  137 1
  53   25  138 1
  54   25  139 1
  55   26   27 2
  56   26   29 1
  57   26   36 am
  58   28   29 1
  59   28  140 1
  60   29   30 1
  61   29  141 1
  62   30   31 1
  63   30  142 1
  64   30  143 1
  65   31   32 1
  66   31   33 1
  67   31  144 1
  68   32  145 1
  69   32  146 1
  70   32  147 1
  71   33  148 1
  72   33  149 1
  73   33  150 1
  74   34   35 2
  75   34   37 1
  76   34   44 am
  77   36   37 1
  78   36  151 1
  79   37   38 1
  80   37  152 1
  81   38   39 1
  82   38  153 1
  83   38  154 1
  84   39   40 1
  85   39   41 1
  86   39  155 1
  87   40  156 1
  88   40  157 1
  89   40  158 1
  90   41  159 1
  91   41  160 1
  92   41  161 1
  93   42   43 2
  94   42   45 1
  95   42   51 am
  96   44   45 1
  97   44  162 1
  98   45   46 1
  99   45  163 1
 100   46   47 1
 101   46   48 1
 102   46  164 1
 103   47  165 1
 104   47  166 1
 105   47  167 1
 106   48  168 1
 107   49   50 2
 108   49   52 1
 109   49   60 am
 110   51   52 1
 111   51  169 1
 112   52   53 1
 113   52  170 1
 114   53   54 1
 115   53  171 1
 116   53  172 1
 117   54   55 1
 118   54  173 1
 119   54  174 1
 120   55   56 1
 121   55  175 1
 122   55  176 1
 123   56   57 1
 124   56  177 1
 125   56  178 1
 126   57  179 1
 127   57  180 1
 128   58   59 2
 129   58   61 1
 130   58   68 am
 131   60   61 1
 132   60  181 1
 133   61   62 1
 134   61  182 1
 135   62   63 1
 136   62  183 1
 137   62  184 1
 138   63   64 1
 139   63   65 1
 140   63  185 1
 141   64  186 1
 142   64  187 1
 143   64  188 1
 144   65  189 1
 145   65  190 1
 146   65  191 1
 147   66   67 2
 148   66   69 1
 149   66   72 am
 150   68   69 1
 151   68  192 1
 152   69  193 1
 153   69  194 1
 154   70   71 2
 155   70   73 1
 156   70   78 am
 157   72   73 1
 158   72  195 1
 159   73   74 1
 160   73  196 1
 161   74   75 1
 162   74  197 1
 163   74  198 1
 164   75  199 1
 165   76   77 2
 166   76   79 1
 167   76   85 am
 168   78   79 1
 169   78  200 1
 170   79   80 1
 171   79  201 1
 172   80   81 1
 173   80   82 1
 174   80  202 1
 175   81  203 1
 176   81  204 1
 177   81  205 1
 178   82  206 1
 179   83   84 2
 180   83   86 1
 181   83   89 am
 182   85   86 1
 183   85  207 1
 184   86  208 1
 185   86  209 1
 186   87   88 2
 187   87   94 1
 188   87   90 1
 189   89   90 1
 190   89   93 1
 191   90   91 1
 192   90  210 1
 193   91   92 1
 194   91  211 1
 195   91  212 1
 196   92   93 1
 197   92  213 1
 198   92  214 1
 199   93  215 1
 200   93  216 1
 201   94  217 1
 202   95   96 2
 203   95  111 1
 204   97   98 1
 205   97  218 1
 206   97  219 1
 207   97  220 1
 208   98   99 1
 209   98  221 1
 210   98  222 1
 211   99  100 1
 212   99  223 1
 213   99  224 1
 214  100  101 1
 215  100  225 1
 216  100  226 1
 217  101  102 1
 218  101  227 1
 219  101  228 1
 220  102  103 1
 221  102  229 1
 222  102  230 1
 223  103  104 1
 224  103  231 1
 225  103  232 1
 226  104  105 1
 227  104  233 1
 228  104  234 1
 229  105  106 1
 230  105  235 1
 231  105  236 1
 232  106  107 1
 233  106  237 1
 234  106  238 1
 235  107  108 1
 236  107  239 1
 237  107  240 1
 238  108  109 1
 239  108  241 1
 240  108  242 1
 241  109  110 1
 242  109  243 1
 243  109  244 1
 244  110  111 1
 245  110  245 1
 246  110  246 1
 247  111  247 1
 248  111  248 1

#	End of record

