#	Name: ASD01884511
#	Creating user name:	WinNT
#	Creation time:	15. 06. 2019 19:48

#	Modifying user name:	WinNT
#	Modification time:	15. 06. 2019 19:48

#	Program:	/corina/corina34_cracker 3.40 0067  02.08.2006

@<TRIPOS>MOLECULE
ASD01884511
  70   71    0    0    0
SMALL
NO_CHARGES


@<TRIPOS>ATOM
   1 C1            -0.0168     1.3884     0.0097 C.2     
   2 C2             0.0021    -0.0041     0.0020 C.2     
   3 C3            -1.2095    -0.6965     0.0104 C.2     
   4 C4            -2.3831    -0.0157     0.0252 C.2     
   5 N5            -2.4093     1.3392     0.0327 N.am    
   6 C6            -1.2693     2.0558     0.0312 C.2     
   7 O7            -1.3129     3.2741     0.0380 O.2     
   8 C8            -3.6983     2.0352     0.0483 C.3     
   9 C9             1.2059     2.1337     0.0020 C.1     
  10 N10            2.1759     2.7249    -0.0041 N.1     
  11 N11            1.6901    -1.1066     1.3585 N.3     
  12 C12            2.8290    -2.0352     1.3670 C.3     
  13 C13            3.2431    -2.3172     2.8131 C.3     
  14 N14            2.1012    -2.8822     3.5456 N.3     
  15 C15            0.9623    -1.9536     3.5371 C.3     
  16 C16            0.5482    -1.6716     2.0910 C.3     
  17 C17           -4.1273     2.2662     1.4744 C.ar    
  18 C18            1.3105    -0.7515    -0.0155 C.3     
  19 N19            2.4769    -3.2337     4.9056 N.3     
  20 C20           -3.7545     3.4263     2.1279 C.ar    
  21 C21           -4.1464     3.6404     3.4352 C.ar    
  22 C22           -4.9147     2.6903     4.0923 C.ar    
  23 C23           -5.2875     1.5272     3.4343 C.ar    
  24 C24           -4.8977     1.3204     2.1252 C.ar    
  25 O25           -5.3012     2.8985     5.3784 O.3     
  26 C26            1.3346    -3.7989     5.6383 C.3     
  27 C27            1.7880    -4.2090     7.0419 C.3     
  28 O28            2.3497    -3.0742     7.7066 O.3     
  29 C29            3.4649    -2.4988     7.0207 C.3     
  30 C30            3.0285    -2.0713     5.6169 C.3     
  31 C31            3.9657    -1.2774     7.7941 C.3     
  32 C32            0.5864    -4.7238     7.8369 C.3     
  33 C33           -6.0908     1.8776     5.9919 C.3     
  34 F34           -5.3726     0.6771     6.0047 F       
  35 F35           -6.3981     2.2513     7.3045 F       
  36 F36           -7.2748     1.7050     5.2669 F       
  37 H37           -1.2130    -1.7765     0.0046 H       
  38 H38           -3.3137    -0.5638     0.0308 H       
  39 H39           -3.5999     2.9937    -0.4613 H       
  40 H40           -4.4456     1.4275    -0.4619 H       
  41 H41            2.5411    -2.9683     0.8826 H       
  42 H42            3.6659    -1.5892     0.8295 H       
  43 H43            4.0692    -3.0283     2.8228 H       
  44 H44            3.5569    -1.3883     3.2893 H       
  45 H45            0.1254    -2.3996     4.0746 H       
  46 H46            1.2502    -1.0205     4.0215 H       
  47 H47           -0.2779    -0.9605     2.0813 H       
  48 H48            0.2344    -2.6005     1.6148 H       
  49 H49            1.2023    -1.6595    -0.6087 H       
  50 H50            2.0835    -0.1207    -0.4544 H       
  51 H51           -3.1561     4.1654     1.6161 H       
  52 H52           -3.8547     4.5465     3.9453 H       
  53 H53           -5.8856     0.7861     3.9437 H       
  54 H54           -5.1876     0.4151     1.6125 H       
  55 H55            0.5452    -3.0511     5.7149 H       
  56 H56            0.9582    -4.6732     5.1074 H       
  57 H57            2.5392    -4.9953     6.9665 H       
  58 H58            4.2648    -3.2353     6.9446 H       
  59 H59            3.8886    -1.6846     5.0703 H       
  60 H60            2.2662    -1.2959     5.6931 H       
  61 H61            4.2726    -1.5817     8.7948 H       
  62 H62            4.8156    -0.8393     7.2709 H       
  63 H63            3.1655    -0.5409     7.8678 H       
  64 H64            0.1564    -5.5864     7.3278 H       
  65 H65            0.9099    -5.0157     8.8361 H       
  66 H66           -0.1632    -3.9362     7.9133 H       
  67 *67            9.8156     9.5465    13.8361 Du      
  68 S68           14.8156    15.8914    18.8468 S.3     
  69 H69           14.8338    14.5465    18.8394 H       
  70 H70           16.1219    16.2117    18.8361 H       
@<TRIPOS>BOND
   1    1    2 2
   2    1    9 1
   3    1    6 1
   4    2    3 1
   5    2   18 1
   6    3    4 2
   7    3   37 1
   8    4    5 1
   9    4   38 1
  10    5    6 am
  11    5    8 1
  12    6    7 2
  13    8   17 1
  14    8   39 1
  15    8   40 1
  16    9   10 3
  17   11   12 1
  18   11   16 1
  19   11   18 1
  20   12   13 1
  21   12   41 1
  22   12   42 1
  23   13   14 1
  24   13   43 1
  25   13   44 1
  26   14   15 1
  27   14   19 1
  28   15   16 1
  29   15   45 1
  30   15   46 1
  31   16   47 1
  32   16   48 1
  33   17   20 ar
  34   17   24 ar
  35   18   49 1
  36   18   50 1
  37   19   26 1
  38   19   30 1
  39   20   21 ar
  40   20   51 1
  41   21   22 ar
  42   21   52 1
  43   22   23 ar
  44   22   25 1
  45   23   24 ar
  46   23   53 1
  47   24   54 1
  48   25   33 1
  49   26   27 1
  50   26   55 1
  51   26   56 1
  52   27   28 1
  53   27   32 1
  54   27   57 1
  55   28   29 1
  56   29   30 1
  57   29   31 1
  58   29   58 1
  59   30   59 1
  60   30   60 1
  61   31   61 1
  62   31   62 1
  63   31   63 1
  64   32   64 1
  65   32   65 1
  66   32   66 1
  67   33   34 1
  68   33   35 1
  69   33   36 1
  70   68   69 1
  71   68   70 1

#	End of record

