#	Name: ASD01917600
#	Creating user name:	WinNT
#	Creation time:	15. 06. 2019 20:09

#	Modifying user name:	WinNT
#	Modification time:	15. 06. 2019 20:09

#	Program:	/corina/corina34_cracker 3.40 0067  02.08.2006

@<TRIPOS>MOLECULE
ASD01917600
  35   35    0    0    0
SMALL
NO_CHARGES


@<TRIPOS>ATOM
   1 C1             0.0024     1.5482     0.4709 C.2     
   2 C2             0.1154     0.0473     0.3957 C.3     
   3 O3             0.9783     2.2158     0.7195 O.2     
   4 O4            -1.1812     2.1437     0.2562 O.3     
   5 C5            -1.2159     3.5926     0.3448 C.3     
   6 C6            -2.6381     4.0863     0.0722 C.3     
   7 C7            -3.0693     3.6507    -1.3297 C.3     
   8 C8            -3.5927     3.4891     1.1080 C.3     
   9 C9            -2.6741     5.5901     0.1641 C.2     
  10 N10           -2.3269     6.2114     1.3295 N.pl3   
  11 N11           -3.0366     6.2979    -0.8690 N.2     
  12 C12           -3.0775     7.6630    -0.7828 C.ar    
  13 C13           -1.9819     8.4177    -1.2090 C.ar    
  14 C14           -2.0387     9.7954    -1.1155 C.ar    
  15 C15           -3.1892    10.3790    -0.5986 C.ar    
  16 C16           -4.2367     9.5732    -0.1954 C.ar    
  17 N17           -4.1609     8.2610    -0.2996 N.ar    
  18 I18           -3.3337    12.4623    -0.4316 I       
  19 O19           -2.2467     7.6241     1.3821 O.3     
  20 H20           -0.0678    -0.3807     1.3812 H       
  21 H21           -0.6207    -0.3376    -0.3101 H       
  22 H22            1.1164    -0.2254     0.0615 H       
  23 H23           -0.9087     3.9030     1.3435 H       
  24 H24           -0.5358     4.0181    -0.3931 H       
  25 H25           -3.0433     2.5630    -1.3962 H       
  26 H26           -4.0825     4.0024    -1.5239 H       
  27 H27           -2.3892     4.0762    -2.0676 H       
  28 H28           -3.2855     3.7995     2.1067 H       
  29 H29           -4.6059     3.8409     0.9138 H       
  30 H30           -3.5667     2.4014     1.0415 H       
  31 H31           -2.1352     5.6849     2.1214 H       
  32 H32           -1.1029     7.9314    -1.6056 H       
  33 H33           -1.2072    10.4051    -1.4367 H       
  34 H34           -5.1317    10.0246     0.2066 H       
  35 H35           -1.9940     7.9718     2.2483 H       
@<TRIPOS>BOND
   1    1    2 1
   2    1    3 2
   3    1    4 1
   4    2   20 1
   5    2   21 1
   6    2   22 1
   7    4    5 1
   8    5    6 1
   9    5   23 1
  10    5   24 1
  11    6    7 1
  12    6    8 1
  13    6    9 1
  14    7   25 1
  15    7   26 1
  16    7   27 1
  17    8   28 1
  18    8   29 1
  19    8   30 1
  20    9   10 1
  21    9   11 2
  22   10   19 1
  23   10   31 1
  24   11   12 1
  25   12   13 ar
  26   12   17 ar
  27   13   14 ar
  28   13   32 1
  29   14   15 ar
  30   14   33 1
  31   15   16 ar
  32   15   18 1
  33   16   17 ar
  34   16   34 1
  35   19   35 1

#	End of record

