#	Name: ASD01810064
#	Creating user name:	WinNT
#	Creation time:	15. 06. 2019 19:23

#	Modifying user name:	WinNT
#	Modification time:	15. 06. 2019 19:23

#	Program:	/corina/corina34_cracker 3.40 0067  02.08.2006

@<TRIPOS>MOLECULE
ASD01810064
  62   66    0    0    0
SMALL
NO_CHARGES


@<TRIPOS>ATOM
   1 C1             0.1976     1.2949     0.1711 C.ar    
   2 C2             0.2370    -0.0885     0.1581 C.ar    
   3 C3             1.4505    -0.7507     0.1102 C.ar    
   4 C4             2.6324    -0.0236     0.0746 C.ar    
   5 C5             2.5909     1.3715     0.0872 C.ar    
   6 C6             1.3691     2.0258     0.1359 C.ar    
   7 N7             3.9776    -0.3862     0.0244 N.am    
   8 C8             4.7188     0.7377     0.0074 C.2     
   9 N9             3.9109     1.8140     0.0445 N.am    
  10 C10            4.3461     3.2129     0.0409 C.3     
  11 C11            5.2296     3.4770     1.2632 C.3     
  12 C12            5.7306     4.9225     1.2217 C.3     
  13 N13            6.4943     5.1419    -0.0133 N.3     
  14 C14            5.6537     4.9402    -1.2003 C.3     
  15 C15            5.1504     3.4953    -1.2311 C.3     
  16 O16            5.9344     0.7750    -0.0346 O.2     
  17 C17            7.1073     6.4768    -0.0230 C.3     
  18 C18            7.9942     6.6236    -1.2625 C.3     
  19 C19            8.5816     8.0363    -1.2991 C.3     
  20 N20            7.4919     9.0200    -1.3357 N.3     
  21 C21            6.6545     8.9298    -0.1327 C.3     
  22 C22            6.0097     7.5437    -0.0612 C.3     
  23 C23            8.0168    10.3808    -1.5108 C.3     
  24 C24            6.8999    11.2992    -1.9353 C.ar    
  25 C25            6.4794    11.3134    -3.2518 C.ar    
  26 C26            5.4548    12.1560    -3.6413 C.ar    
  27 C27            4.8507    12.9839    -2.7139 C.ar    
  28 C28            5.2707    12.9691    -1.3968 C.ar    
  29 C29            6.2921    12.1236    -1.0066 C.ar    
  30 F30            1.4853    -2.1012     0.0986 F       
  31 C31            7.1381    10.4107    -4.2629 C.3     
  32 F32            6.4902    10.5406    -5.4961 F       
  33 F33            8.4830    10.7699    -4.4026 F       
  34 F34            7.0526     9.0835    -3.8288 F       
  35 H35           -0.7536     1.8053     0.2044 H       
  36 H36           -0.6832    -0.6532     0.1859 H       
  37 H37            1.3336     3.1052     0.1458 H       
  38 H38            4.3209    -1.2932     0.0056 H       
  39 H39            3.4739     3.8658     0.0739 H       
  40 H40            4.6497     3.3189     2.1724 H       
  41 H41            6.0809     2.7964     1.2508 H       
  42 H42            4.8794     5.6028     1.2480 H       
  43 H43            6.3716     5.1096     2.0832 H       
  44 H44            4.8028     5.6204    -1.1627 H       
  45 H45            6.2388     5.1401    -2.0980 H       
  46 H46            6.0004     2.8149    -1.2827 H       
  47 H47            4.5139     3.3501    -2.1039 H       
  48 H48            7.7117     6.6067     0.8748 H       
  49 H49            8.8031     5.8942    -1.2196 H       
  50 H50            7.3977     6.4541    -2.1589 H       
  51 H51            9.1891     8.2002    -0.4092 H       
  52 H52            9.2022     8.1487    -2.1881 H       
  53 H53            7.2711     9.0895     0.7518 H       
  54 H54            5.8755     9.6910    -0.1745 H       
  55 H55            5.3820     7.3887    -0.9388 H       
  56 H56            5.4007     7.4717     0.8399 H       
  57 H57            8.4377    10.7320    -0.5687 H       
  58 H58            8.7931    10.3751    -2.2759 H       
  59 H59            5.1267    12.1675    -4.6702 H       
  60 H60            4.0508    13.6426    -3.0183 H       
  61 H61            4.7989    13.6163    -0.6723 H       
  62 H62            6.6202    12.1120     0.0223 H       
@<TRIPOS>BOND
   1    1    2 ar
   2    1    6 ar
   3    1   35 1
   4    2    3 ar
   5    2   36 1
   6    3    4 ar
   7    3   30 1
   8    4    5 ar
   9    4    7 1
  10    5    6 ar
  11    5    9 1
  12    6   37 1
  13    7    8 am
  14    7   38 1
  15    8    9 am
  16    8   16 2
  17    9   10 1
  18   10   11 1
  19   10   15 1
  20   10   39 1
  21   11   12 1
  22   11   40 1
  23   11   41 1
  24   12   13 1
  25   12   42 1
  26   12   43 1
  27   13   14 1
  28   13   17 1
  29   14   15 1
  30   14   44 1
  31   14   45 1
  32   15   46 1
  33   15   47 1
  34   17   18 1
  35   17   22 1
  36   17   48 1
  37   18   19 1
  38   18   49 1
  39   18   50 1
  40   19   20 1
  41   19   51 1
  42   19   52 1
  43   20   21 1
  44   20   23 1
  45   21   22 1
  46   21   53 1
  47   21   54 1
  48   22   55 1
  49   22   56 1
  50   23   24 1
  51   23   57 1
  52   23   58 1
  53   24   25 ar
  54   24   29 ar
  55   25   26 ar
  56   25   31 1
  57   26   27 ar
  58   26   59 1
  59   27   28 ar
  60   27   60 1
  61   28   29 ar
  62   28   61 1
  63   29   62 1
  64   31   32 1
  65   31   33 1
  66   31   34 1

#	End of record

