#	Name: ASD01910454
#	Creating user name:	WinNT
#	Creation time:	15. 06. 2019 19:55

#	Modifying user name:	WinNT
#	Modification time:	15. 06. 2019 19:55

#	Program:	/corina/corina34_cracker 3.40 0067  02.08.2006

@<TRIPOS>MOLECULE
ASD01910454
  45   48    0    0    0
SMALL
NO_CHARGES


@<TRIPOS>ATOM
   1 C1            -2.1953     7.1815    -0.1729 C.ar    
   2 C2            -2.9514     6.0795     0.1931 C.ar    
   3 C3            -2.3288     4.9213     0.6302 C.ar    
   4 C4            -0.9525     4.8611     0.7030 C.ar    
   5 C5            -0.1882     5.9671     0.3359 C.ar    
   6 C6            -0.8185     7.1297    -0.1035 C.ar    
   7 F7            -4.2995     6.1346     0.1241 F       
   8 C8             1.2924     5.9070     0.4132 C.2     
   9 N9             2.1539     6.8983     0.0908 N.2     
  10 C10            3.3494     6.4108     0.3111 C.2     
  11 O11            3.1890     5.1596     0.7534 O.3     
  12 N12            2.0084     4.8876     0.8111 N.2     
  13 C13            4.6597     7.1259     0.1044 C.3     
  14 C14            5.4145     7.2035     1.4334 C.3     
  15 C15            6.7304     7.9584     1.2313 C.3     
  16 C16            7.6005     7.1992     0.2247 C.3     
  17 N17            6.8276     6.9932    -1.0077 N.am    
  18 C18            5.5064     6.3573    -0.9150 C.3     
  19 C19            7.3213     7.3802    -2.2006 C.2     
  20 C20            6.6212     7.0672    -3.3925 C.2     
  21 O21            8.3688     7.9989    -2.2544 O.2     
  22 S22            5.8822     5.5158    -3.7643 S.3     
  23 C23            5.3374     6.0821    -5.2782 C.2     
  24 C24            5.6960     7.3542    -5.4745 C.2     
  25 C25            6.4061     7.9283    -4.4396 C.2     
  26 O26            6.8542     9.2100    -4.4593 O.3     
  27 C27            6.5613     9.9818    -5.6258 C.3     
  28 H28           -2.6844     8.0808    -0.5172 H       
  29 H29           -2.9218     4.0646     0.9145 H       
  30 H30           -0.4680     3.9582     1.0445 H       
  31 H31           -0.2299     7.9889    -0.3893 H       
  32 H32            4.4698     8.1335    -0.2656 H       
  33 H33            4.8037     7.7286     2.1678 H       
  34 H34            5.6253     6.1956     1.7907 H       
  35 H35            6.5215     8.9581     0.8505 H       
  36 H36            7.2565     8.0337     2.1830 H       
  37 H37            8.4946     7.7816     0.0023 H       
  38 H38            7.8855     6.2339     0.6430 H       
  39 H39            5.6205     5.3233    -0.5897 H       
  40 H40            5.0187     6.3842    -1.8895 H       
  41 H41            4.7763     5.4898    -5.9858 H       
  42 H42            5.4452     7.8947    -6.3753 H       
  43 H43            7.0045     9.5030    -6.4990 H       
  44 H44            5.4811    10.0471    -5.7563 H       
  45 H45            6.9748    10.9838    -5.5117 H       
@<TRIPOS>BOND
   1    1    2 ar
   2    1    6 ar
   3    1   28 1
   4    2    3 ar
   5    2    7 1
   6    3    4 ar
   7    3   29 1
   8    4    5 ar
   9    4   30 1
  10    5    6 ar
  11    5    8 1
  12    6   31 1
  13    8    9 1
  14    8   12 2
  15    9   10 2
  16   10   11 1
  17   10   13 1
  18   11   12 1
  19   13   14 1
  20   13   18 1
  21   13   32 1
  22   14   15 1
  23   14   33 1
  24   14   34 1
  25   15   16 1
  26   15   35 1
  27   15   36 1
  28   16   17 1
  29   16   37 1
  30   16   38 1
  31   17   18 1
  32   17   19 am
  33   18   39 1
  34   18   40 1
  35   19   20 1
  36   19   21 2
  37   20   22 1
  38   20   25 2
  39   22   23 1
  40   23   24 2
  41   23   41 1
  42   24   25 1
  43   24   42 1
  44   25   26 1
  45   26   27 1
  46   27   43 1
  47   27   44 1
  48   27   45 1

#	End of record

