#	Name: ASD01890369
#	Creating user name:	WinNT
#	Creation time:	15. 06. 2019 19:50

#	Modifying user name:	WinNT
#	Modification time:	15. 06. 2019 19:50

#	Program:	/corina/corina34_cracker 3.40 0067  02.08.2006

@<TRIPOS>MOLECULE
ASD01890369
  44   45    0    0    0
SMALL
NO_CHARGES


@<TRIPOS>ATOM
   1 C1             0.1791     1.5287     0.0760 C.2     
   2 C2             0.1167     0.0247     0.0034 C.3     
   3 C3             1.5356    -0.5468     0.0357 C.3     
   4 O4             1.2487     2.0862     0.1465 O.2     
   5 O5            -0.9533     2.2491     0.0570 O.3     
   6 C6             1.4954    -2.6270    -1.2324 C.2     
   7 C7             1.5589    -4.1310    -1.3029 C.3     
   8 O8             1.4626    -1.9729    -2.2533 O.2     
   9 N9             1.4749    -2.0088    -0.0350 N.am    
  10 C10            1.3957    -2.7634     1.1407 C.ar    
  11 C11            2.4615    -2.7787     2.0308 C.ar    
  12 C12            2.3802    -3.5246     3.1904 C.ar    
  13 C13            1.2390    -4.2555     3.4655 C.ar    
  14 C14            0.1762    -4.2427     2.5810 C.ar    
  15 C15            0.2488    -3.4940     1.4226 C.ar    
  16 C16            1.4525    -4.5715    -2.7402 C.ar    
  17 C17            2.5953    -4.7181    -3.5042 C.ar    
  18 C18            2.4982    -5.1228    -4.8231 C.ar    
  19 C19            1.2557    -5.3808    -5.3777 C.ar    
  20 C20            0.1135    -5.2336    -4.6119 C.ar    
  21 C21            0.2128    -4.8342    -3.2921 C.ar    
  22 Cl22           1.1320    -5.8883    -7.0333 Cl      
  23 Cl23           3.9329    -5.3065    -5.7832 Cl      
  24 C24           -0.8174     3.6929     0.1303 C.3     
  25 C25           -2.2043     4.3381     0.0959 C.3     
  26 H26           -0.4482    -0.3570     0.8538 H       
  27 H27           -0.3744    -0.2742    -0.9227 H       
  28 H28            2.1005    -0.1650    -0.8148 H       
  29 H29            2.0267    -0.2478     0.9617 H       
  30 H30            2.5060    -4.4746    -0.8868 H       
  31 H31            0.7348    -4.5567    -0.7305 H       
  32 H32            3.3531    -2.2083     1.8164 H       
  33 H33            3.2089    -3.5372     3.8829 H       
  34 H34            1.1779    -4.8380     4.3729 H       
  35 H35           -0.7136    -4.8150     2.7985 H       
  36 H36           -0.5835    -3.4806     0.7346 H       
  37 H37            3.5639    -4.5163    -3.0712 H       
  38 H38           -0.8558    -5.4347    -5.0438 H       
  39 H39           -0.6791    -4.7233    -2.6932 H       
  40 H40           -0.3136     3.9638     1.0581 H       
  41 H41           -0.2312     4.0462    -0.7181 H       
  42 H42           -2.7082     4.0672    -0.8319 H       
  43 H43           -2.7905     3.9848     0.9442 H       
  44 H44           -2.1023     5.4219     0.1509 H       
@<TRIPOS>BOND
   1    1    2 1
   2    1    4 2
   3    1    5 1
   4    2    3 1
   5    2   26 1
   6    2   27 1
   7    3    9 1
   8    3   28 1
   9    3   29 1
  10    5   24 1
  11    6    7 1
  12    6    8 2
  13    6    9 am
  14    7   16 1
  15    7   30 1
  16    7   31 1
  17    9   10 1
  18   10   11 ar
  19   10   15 ar
  20   11   12 ar
  21   11   32 1
  22   12   13 ar
  23   12   33 1
  24   13   14 ar
  25   13   34 1
  26   14   15 ar
  27   14   35 1
  28   15   36 1
  29   16   17 ar
  30   16   21 ar
  31   17   18 ar
  32   17   37 1
  33   18   19 ar
  34   18   23 1
  35   19   20 ar
  36   19   22 1
  37   20   21 ar
  38   20   38 1
  39   21   39 1
  40   24   25 1
  41   24   40 1
  42   24   41 1
  43   25   42 1
  44   25   43 1
  45   25   44 1

#	End of record

