#	Name: ASD02198866
#	Creating user name:	WinNT
#	Creation time:	15. 06. 2019 20:20

#	Modifying user name:	WinNT
#	Modification time:	15. 06. 2019 20:20

#	Program:	/corina/corina34_cracker 3.40 0067  02.08.2006

@<TRIPOS>MOLECULE
ASD02198866
  49   53    0    0    0
SMALL
NO_CHARGES


@<TRIPOS>ATOM
   1 F1             2.2530    -1.7113     2.4721 F       
   2 C2            -0.0433     1.5017    -0.1150 C.2     
   3 C3            -0.0730     0.1619     0.0974 C.2     
   4 N4             1.0713    -0.5396     0.2602 N.pl3   
   5 N5             2.2358    -0.0048     0.2262 N.2     
   6 C6             2.4073     1.2846     0.0276 C.2     
   7 C7             1.2215     2.1357    -0.1605 C.2     
   8 C8             0.9798    -1.9187     0.4772 C.ar    
   9 C9             1.5804    -2.4889     1.5956 C.ar    
  10 C10            1.4886    -3.8514     1.8087 C.ar    
  11 C11            0.7975    -4.6497     0.9071 C.ar    
  12 C12            0.1982    -4.0798    -0.2091 C.ar    
  13 C13            0.2844    -2.7189    -0.4207 C.ar    
  14 C14            3.7643     1.8669    -0.0050 C.2     
  15 N15            4.3063     2.6067    -1.0182 N.pl3   
  16 N16            5.6083     2.9581    -0.6406 N.2     
  17 C17            5.8521     2.4586     0.5448 C.2     
  18 C18            4.7199     1.7716     0.9828 C.2     
  19 C19            3.6733     2.9511    -2.2193 C.ar    
  20 C20            3.8072     4.2341    -2.7334 C.ar    
  21 C21            3.1818     4.5706    -3.9179 C.ar    
  22 C22            2.4226     3.6315    -4.5917 C.ar    
  23 C23            2.2874     2.3530    -4.0825 C.ar    
  24 C24            2.9154     2.0085    -2.9015 C.ar    
  25 O25            1.3245     3.3388    -0.3487 O.2     
  26 N26            0.7049    -6.0314     1.1230 N.pl3   
  27 C27            0.0559    -6.9238     0.3140 C.2     
  28 C28            0.1884    -8.1543     0.8525 C.2     
  29 C29            0.9456    -8.0202     2.0359 C.2     
  30 C30            1.2533    -6.7134     2.1747 C.2     
  31 F31           -0.3125    -9.3043     0.3506 F       
  32 F32            1.3021    -9.0183     2.8737 F       
  33 C33            7.1407     2.6068     1.3120 C.3     
  34 H34           -0.9547     2.0653    -0.2496 H       
  35 H35           -1.0228    -0.3506     0.1374 H       
  36 H36            1.9546    -4.2950     2.6761 H       
  37 H37           -0.3387    -4.7018    -0.9099 H       
  38 H38           -0.1822    -2.2769    -1.2886 H       
  39 H39            4.6139     1.2526     1.9240 H       
  40 H40            4.3994     4.9682    -2.2072 H       
  41 H41            3.2855     5.5683    -4.3182 H       
  42 H42            1.9340     3.8973    -5.5175 H       
  43 H43            1.6938     1.6218    -4.6110 H       
  44 H44            2.8096     1.0097    -2.5045 H       
  45 H45           -0.4715    -6.6849    -0.5977 H       
  46 H46            1.8272    -6.2800     2.9804 H       
  47 H47            7.0930     3.5014     1.9329 H       
  48 H48            7.2890     1.7323     1.9455 H       
  49 H49            7.9720     2.6940     0.6125 H       
@<TRIPOS>BOND
   1    1    9 1
   2    2    3 2
   3    2    7 1
   4    2   34 1
   5    3    4 1
   6    3   35 1
   7    4    5 1
   8    4    8 1
   9    5    6 2
  10    6    7 1
  11    6   14 1
  12    7   25 2
  13    8    9 ar
  14    8   13 ar
  15    9   10 ar
  16   10   11 ar
  17   10   36 1
  18   11   12 ar
  19   11   26 1
  20   12   13 ar
  21   12   37 1
  22   13   38 1
  23   14   15 1
  24   14   18 2
  25   15   16 1
  26   15   19 1
  27   16   17 2
  28   17   18 1
  29   17   33 1
  30   18   39 1
  31   19   20 ar
  32   19   24 ar
  33   20   21 ar
  34   20   40 1
  35   21   22 ar
  36   21   41 1
  37   22   23 ar
  38   22   42 1
  39   23   24 ar
  40   23   43 1
  41   24   44 1
  42   26   27 1
  43   26   30 1
  44   27   28 2
  45   27   45 1
  46   28   29 1
  47   28   31 1
  48   29   30 2
  49   29   32 1
  50   30   46 1
  51   33   47 1
  52   33   48 1
  53   33   49 1

#	End of record

