#	Name: ASD04840085
#	Creating user name:	WinNT
#	Creation time:	15. 06. 2019 20:52

#	Modifying user name:	WinNT
#	Modification time:	15. 06. 2019 20:52

#	Program:	/corina/corina34_cracker 3.40 0067  02.08.2006

@<TRIPOS>MOLECULE
ASD04840085
  40   42    0    0    0
SMALL
NO_CHARGES


@<TRIPOS>ATOM
   1 C1             2.0440     1.4999    -1.0640 C.3     
   2 C2            -0.2224    -5.4864    -0.0411 C.ar    
   3 C3             2.1213    -5.4559    -1.5783 C.ar    
   4 C4             1.9391    -2.8895    -1.2835 C.2     
   5 C5            -0.2415    -7.9134    -0.1877 C.ar    
   6 C6            -1.3806    -7.9320     0.5603 C.ar    
   7 P7             2.9111     2.1383     0.4071 P.3     
   8 O8             4.2806     1.5792     0.4538 O.2     
   9 O9             2.9895     3.7445     0.3288 O.3     
  10 O10            2.1086     1.7042     1.7336 O.3     
  11 N11            2.0769     0.0353    -1.0529 N.am    
  12 C12            1.0418    -0.6582    -0.5390 C.2     
  13 O13            0.1222    -0.0699    -0.0021 O.2     
  14 C14            1.0240    -2.1250    -0.6272 C.2     
  15 N15            0.0775    -2.9514    -0.0577 N.pl3   
  16 C16            0.3885    -4.2504    -0.3552 C.ar    
  17 C17            0.3634    -6.6877    -0.5053 C.ar    
  18 C18            1.5444    -6.6417    -1.2778 C.ar    
  19 C19            1.5593    -4.2422    -1.1251 C.ar    
  20 C20           -1.9583    -6.7496     1.0126 C.ar    
  21 C21           -1.3941    -5.5419     0.7266 C.ar    
  22 C22           -1.0743    -2.5102     0.7329 C.3     
  23 C23           -0.7328    -2.5782     2.1991 C.2     
  24 O24            0.3605    -2.9563     2.5479 O.2     
  25 O25           -1.6432    -2.2187     3.1176 O.3     
  26 H26            1.0085     1.8401    -1.0515 H       
  27 H27            2.5365     1.8676    -1.9641 H       
  28 H28            3.0247    -5.4372    -2.1698 H       
  29 H29            2.7994    -2.5282    -1.8273 H       
  30 H30            0.1959    -8.8389    -0.5321 H       
  31 H31           -1.8415    -8.8776     0.8052 H       
  32 H32            3.4391     4.1534     1.0809 H       
  33 H33            1.2012     2.0364     1.7707 H       
  34 H34            2.8437    -0.4353    -1.4155 H       
  35 H35            1.9888    -7.5596    -1.6333 H       
  36 H36           -2.8613    -6.7895     1.6037 H       
  37 H37           -1.8479    -4.6318     1.0901 H       
  38 H38           -1.3267    -1.4841     0.4658 H       
  39 H39           -1.9258    -3.1591     0.5277 H       
  40 H40           -1.3781    -2.2792     4.0456 H       
@<TRIPOS>BOND
   1    1   11 1
   2    1   26 1
   3    1   27 1
   4    1    7 1
   5    2   21 ar
   6    2   16 ar
   7    2   17 ar
   8    3   18 ar
   9    3   19 ar
  10    3   28 1
  11    4   19 1
  12    4   14 2
  13    4   29 1
  14    5    6 ar
  15    5   30 1
  16    5   17 ar
  17    6   20 ar
  18    6   31 1
  19    7   10 1
  20    7    8 2
  21    7    9 1
  22    9   32 1
  23   10   33 1
  24   11   34 1
  25   11   12 am
  26   12   14 1
  27   12   13 2
  28   14   15 1
  29   15   22 1
  30   15   16 1
  31   16   19 ar
  32   17   18 ar
  33   18   35 1
  34   20   36 1
  35   20   21 ar
  36   21   37 1
  37   22   38 1
  38   22   39 1
  39   22   23 1
  40   23   25 1
  41   23   24 2
  42   25   40 1

#	End of record

