#	Name: ASD08780004
#	Creating user name:	WinNT
#	Creation time:	15. 06. 2019 21:19

#	Modifying user name:	WinNT
#	Modification time:	15. 06. 2019 21:19

#	Program:	/corina/corina34_cracker 3.40 0067  02.08.2006

@<TRIPOS>MOLECULE
ASD08780004
  35   38    0    0    0
SMALL
NO_CHARGES


@<TRIPOS>ATOM
   1 C1             0.0501     1.2399    -0.6349 C.ar    
   2 C2             0.0006    -0.0023    -0.0230 C.ar    
   3 C3             1.1625    -0.5164     0.5615 C.ar    
   4 C4             2.3227     0.2471     0.5019 C.ar    
   5 C5             2.2880     1.4765    -0.1272 C.ar    
   6 N6             1.1741     1.9308    -0.6680 N.ar    
   7 O7             1.1574    -1.7299     1.1718 O.3     
   8 C8             2.3902    -2.1748     1.7413 C.3     
   9 N9            -1.1947    -0.7316     0.0100 N.pl3   
  10 C10           -2.4032    -0.0723     0.1299 C.2     
  11 S11           -2.5836     1.6548     0.4041 S.3     
  12 N12           -3.5611    -0.6346     0.0513 N.2     
  13 C13           -4.6498     0.1441     0.1885 C.ar    
  14 C14           -4.3381     1.4855     0.3998 C.ar    
  15 C15           -6.0246    -0.2262     0.1423 C.ar    
  16 C16           -7.0145     0.7440     0.3087 C.ar    
  17 C17           -6.6642     2.0757     0.5198 C.ar    
  18 C18           -5.3502     2.4361     0.5641 C.ar    
  19 N19           -6.6507    -1.4133    -0.0431 N.2     
  20 C20           -7.9402    -1.2366    -0.0018 C.2     
  21 N21           -8.2219     0.0774     0.2130 N.pl3   
  22 C22           -9.5554     0.6741     0.3221 C.3     
  23 H23           -0.8397     1.6452    -1.0936 H       
  24 H24            3.2395    -0.1162     0.9421 H       
  25 H25            3.1860     2.0743    -0.1768 H       
  26 H26            2.2476    -3.1553     2.1957 H       
  27 H27            3.1475    -2.2430     0.9603 H       
  28 H28            2.7159    -1.4656     2.5022 H       
  29 H29           -1.1742    -1.6994    -0.0512 H       
  30 H30           -7.4337     2.8227     0.6476 H       
  31 H31           -5.0872     3.4706     0.7288 H       
  32 H32           -8.6771    -2.0171    -0.1211 H       
  33 H33           -9.8767     0.6578     1.3636 H       
  34 H34           -9.5225     1.7044    -0.0319 H       
  35 H35          -10.2593     0.1039    -0.2841 H       
@<TRIPOS>BOND
   1    1    2 ar
   2    1    6 ar
   3    1   23 1
   4    2    3 ar
   5    2    9 1
   6    3    4 ar
   7    3    7 1
   8    4    5 ar
   9    4   24 1
  10    5    6 ar
  11    5   25 1
  12    7    8 1
  13    8   26 1
  14    8   27 1
  15    8   28 1
  16    9   10 1
  17    9   29 1
  18   10   11 1
  19   10   12 2
  20   11   14 1
  21   12   13 1
  22   13   14 ar
  23   13   15 ar
  24   14   18 ar
  25   15   16 ar
  26   15   19 1
  27   16   17 ar
  28   16   21 1
  29   17   18 ar
  30   17   30 1
  31   18   31 1
  32   19   20 2
  33   20   21 1
  34   20   32 1
  35   21   22 1
  36   22   33 1
  37   22   34 1
  38   22   35 1

#	End of record

