#	Name: ASD02198031
#	Creating user name:	WinNT
#	Creation time:	15. 06. 2019 20:18

#	Modifying user name:	WinNT
#	Modification time:	15. 06. 2019 20:18

#	Program:	/corina/corina34_cracker 3.40 0067  02.08.2006

@<TRIPOS>MOLECULE
ASD02198031
  34   36    0    0    0
SMALL
NO_CHARGES


@<TRIPOS>ATOM
   1 N1            -0.0166     1.3731     0.0096 N.pl3   
   2 C2             0.0482    -0.0016    -0.0461 C.2     
   3 C3            -1.0409    -0.8401     0.0484 C.2     
   4 C4            -2.3807    -0.3638     0.2180 C.1     
   5 S5             1.4863    -0.8949    -0.2487 S.3     
   6 C6             0.6214    -2.4227    -0.2000 C.2     
   7 C7            -0.7204    -2.1947    -0.0365 C.2     
   8 C8             1.2183    -3.6951    -0.3165 C.2     
   9 O9             0.5281    -4.6985    -0.2704 O.2     
  10 N10            2.5520    -3.8016    -0.4787 N.am    
  11 N11           -1.6642    -3.2094     0.0386 N.pl3   
  12 C12            1.1594     2.1276     0.0361 C.ar    
  13 C13            1.2218     3.3434    -0.6331 C.ar    
  14 N14           -3.4435     0.0140     0.3526 N.1     
  15 C15            2.3853     4.0867    -0.6044 C.ar    
  16 C16            3.4878     3.6217     0.0890 C.ar    
  17 C17            3.4293     2.4117     0.7559 C.ar    
  18 C18            2.2669     1.6662     0.7365 C.ar    
  19 C19            3.1397    -5.0545    -0.5934 C.2     
  20 N20            4.4088    -5.2678    -0.7518 N.2     
  21 C21            4.7961    -6.5267    -0.8422 C.2     
  22 C22            3.8079    -7.4188    -0.7561 C.2     
  23 S23            2.2962    -6.5406    -0.5390 S.3     
  24 H24           -0.8785     1.8177     0.0264 H       
  25 H25            3.1014    -3.0030    -0.5154 H       
  26 H26           -1.3859    -4.1365    -0.0252 H       
  27 H27           -2.6023    -2.9916     0.1550 H       
  28 H28            0.3614     3.7068    -1.1754 H       
  29 H29            2.4345     5.0320    -1.1244 H       
  30 H30            4.3966     4.2048     0.1096 H       
  31 H31            4.2923     2.0511     1.2959 H       
  32 H32            2.2219     0.7213     1.2575 H       
  33 H33            5.8294    -6.8113    -0.9756 H       
  34 H34            3.9162    -8.4922    -0.8067 H       
@<TRIPOS>BOND
   1    1    2 1
   2    1   12 1
   3    1   24 1
   4    2    3 2
   5    2    5 1
   6    3    4 1
   7    3    7 1
   8    4   14 3
   9    5    6 1
  10    6    7 2
  11    6    8 1
  12    7   11 1
  13    8    9 2
  14    8   10 am
  15   10   19 1
  16   10   25 1
  17   11   26 1
  18   11   27 1
  19   12   13 ar
  20   12   18 ar
  21   13   15 ar
  22   13   28 1
  23   15   16 ar
  24   15   29 1
  25   16   17 ar
  26   16   30 1
  27   17   18 ar
  28   17   31 1
  29   18   32 1
  30   19   20 2
  31   19   23 1
  32   20   21 1
  33   21   22 2
  34   21   33 1
  35   22   23 1
  36   22   34 1

#	End of record

