#	Name: ASD01010013
#	Creating user name:	WinNT
#	Creation time:	15. 06. 2019 18:56

#	Modifying user name:	WinNT
#	Modification time:	15. 06. 2019 18:56

#	Program:	/corina/corina34_cracker 3.40 0067  02.08.2006

@<TRIPOS>MOLECULE
ASD01010013
  14   14    0    0    0
SMALL
NO_CHARGES


@<TRIPOS>ATOM
   1 C1            -0.0180     1.4730     0.0101 C.2     
   2 C2             0.0021    -0.0041     0.0020 C.ar    
   3 C3             1.2177    -0.6999    -0.0133 C.ar    
   4 C4             1.1814    -2.0828    -0.0205 C.ar    
   5 C5            -0.0424    -2.7283    -0.0123 C.ar    
   6 N6            -1.1720    -2.0468     0.0017 N.ar    
   7 C7            -1.1899    -0.7301     0.0153 C.ar    
   8 O8             1.0256     2.0946     0.0035 O.2     
   9 O9            -1.1936     2.1306     0.0193 O.3     
  10 H10            2.1590    -0.1704    -0.0198 H       
  11 H11            2.0988    -2.6526    -0.0326 H       
  12 H12           -0.0735    -3.8078    -0.0178 H       
  13 H13           -2.1349    -0.2076     0.0317 H       
  14 H14           -1.1561     3.0969     0.0244 H       
@<TRIPOS>BOND
   1    1    2 1
   2    1    8 2
   3    1    9 1
   4    2    3 ar
   5    2    7 ar
   6    3    4 ar
   7    3   10 1
   8    4    5 ar
   9    4   11 1
  10    5    6 ar
  11    5   12 1
  12    6    7 ar
  13    7   13 1
  14    9   14 1

#	End of record

