#	Name: ASD01870475
#	Creating user name:	WinNT
#	Creation time:	15. 06. 2019 19:39

#	Modifying user name:	WinNT
#	Modification time:	15. 06. 2019 19:39

#	Program:	/corina/corina34_cracker 3.40 0067  02.08.2006

@<TRIPOS>MOLECULE
ASD01870475
  39   42    0    0    0
SMALL
NO_CHARGES


@<TRIPOS>ATOM
   1 C1            -0.0305     1.3967    -0.2319 C.ar    
   2 C2            -0.0276     0.0163    -0.1047 C.ar    
   3 C3             1.1514    -0.6623     0.1400 C.ar    
   4 C4             2.3473     0.0280     0.2621 C.ar    
   5 C5             2.3597     1.4079     0.1373 C.ar    
   6 C6             1.1573     2.1000    -0.1127 C.ar    
   7 C7             3.4144     2.4413     0.2059 C.2     
   8 N8             2.8482     3.6454     0.0076 N.am    
   9 C9             1.5222     3.5304    -0.1876 C.2     
  10 O10            0.7534     4.4484    -0.3909 O.2     
  11 O11            4.5944     2.2375     0.4083 O.2     
  12 C12            3.5487     4.8615     0.0050 C.ar    
  13 C13            4.0791     5.3545    -1.1794 C.ar    
  14 C14            4.7678     6.5509    -1.1824 C.ar    
  15 C15            4.9309     7.2618    -0.0003 C.ar    
  16 C16            4.4006     6.7693     1.1848 C.ar    
  17 C17            3.7064     5.5747     1.1867 C.ar    
  18 Cl18           3.0370     4.9619     2.6666 Cl      
  19 N19            5.6301     8.4745    -0.0036 N.am    
  20 C20            6.4019     8.8103     1.0491 C.2     
  21 C21            7.2182    10.0367     1.0031 C.2     
  22 O22            6.4248     8.1013     2.0371 O.2     
  23 C23            8.0399    10.4985     1.9850 C.2     
  24 O24            8.5877    11.6380     1.5331 O.3     
  25 C25            8.1135    11.8715     0.3012 C.2     
  26 N26            7.2967    10.9172    -0.0313 N.2     
  27 C27            8.2873     9.8539     3.3245 C.3     
  28 H28           -0.9541     1.9213    -0.4274 H       
  29 H29           -0.9531    -0.5327    -0.1970 H       
  30 H30            1.1408    -1.7379     0.2372 H       
  31 H31            3.2654    -0.5074     0.4540 H       
  32 H32            3.9532     4.8017    -2.0986 H       
  33 H33            5.1803     6.9340    -2.1041 H       
  34 H34            4.5273     7.3218     2.1041 H       
  35 H35            5.5592     9.0732    -0.7634 H       
  36 H36            8.3732    12.7167    -0.3189 H       
  37 H37            9.1272     9.1637     3.2460 H       
  38 H38            8.5171    10.6236     4.0612 H       
  39 H39            7.3963     9.3081     3.6351 H       
@<TRIPOS>BOND
   1    1    2 ar
   2    1    6 ar
   3    1   28 1
   4    2    3 ar
   5    2   29 1
   6    3    4 ar
   7    3   30 1
   8    4    5 ar
   9    4   31 1
  10    5    7 1
  11    5    6 ar
  12    6    9 1
  13    7    8 am
  14    7   11 2
  15    8    9 am
  16    8   12 1
  17    9   10 2
  18   12   13 ar
  19   12   17 ar
  20   13   14 ar
  21   13   32 1
  22   14   15 ar
  23   14   33 1
  24   15   16 ar
  25   15   19 1
  26   16   17 ar
  27   16   34 1
  28   17   18 1
  29   19   20 am
  30   19   35 1
  31   20   21 1
  32   20   22 2
  33   21   23 2
  34   21   26 1
  35   23   24 1
  36   23   27 1
  37   24   25 1
  38   25   26 2
  39   25   36 1
  40   27   37 1
  41   27   38 1
  42   27   39 1

#	End of record

