#	Name: ASD08710008
#	Creating user name:	WinNT
#	Creation time:	15. 06. 2019 21:19

#	Modifying user name:	WinNT
#	Modification time:	15. 06. 2019 21:19

#	Program:	/corina/corina34_cracker 3.40 0067  02.08.2006

@<TRIPOS>MOLECULE
ASD08710008
  50   51    0    0    0
SMALL
NO_CHARGES


@<TRIPOS>ATOM
   1 C1            -0.0187     1.5295     0.0105 C.3     
   2 C2             0.0021    -0.0041     0.0020 C.3     
   3 N3             1.3673     2.0180    -0.0002 N.am    
   4 C4             2.2693     1.5664    -1.0690 C.3     
   5 C5             2.2901     0.0329    -1.0774 C.3     
   6 N6             0.9040    -0.4556    -1.0668 N.am    
   7 S7             0.3683    -1.4967    -2.2380 S.o2    
   8 C8             1.8033     2.8653     0.9530 C.2     
   9 O9             3.0756     3.3053     0.9317 O.3     
  10 O10            1.0482     3.2320     1.8315 O.2     
  11 C11            0.5073    -0.5182     1.3516 C.3     
  12 O12           -1.0432    -1.3437    -2.2957 O.2     
  13 O13            1.2172    -1.3075    -3.3618 O.2     
  14 C14            0.6681    -3.1332    -1.6578 C.ar    
  15 C15           -0.2970    -3.7925    -0.9197 C.ar    
  16 C16            1.8661    -3.7599    -1.9457 C.ar    
  17 C17            2.1013    -5.0439    -1.4906 C.ar    
  18 C18            1.1387    -5.7009    -0.7472 C.ar    
  19 C19           -0.0618    -5.0764    -0.4645 C.ar    
  20 C20            3.4759     4.2158     1.9896 C.3     
  21 C21            3.3007     3.5301     3.3461 C.3     
  22 C22            4.9437     4.6039     1.8002 C.3     
  23 C23            2.6052     5.4728     1.9373 C.3     
  24 C24            1.3949    -7.1007    -0.2515 C.3     
  25 F25            1.9968    -7.0458     1.0102 F       
  26 F26            0.1822    -7.7922    -0.1599 F       
  27 F27            2.2434    -7.7637    -1.1446 F       
  28 H28           -0.5415     1.8931    -0.8742 H       
  29 H29           -0.5245     1.8835     0.9087 H       
  30 H30           -1.0037    -0.3826    -0.1804 H       
  31 H31            1.9094     1.9327    -2.0305 H       
  32 H32            3.2745     1.9449    -0.8836 H       
  33 H33            2.7959    -0.3212    -1.9757 H       
  34 H34            2.8129    -0.3307    -0.1928 H       
  35 H35           -0.1547    -0.1694     2.1442 H       
  36 H36            0.5212    -1.6081     1.3431 H       
  37 H37            1.5153    -0.1434     1.5289 H       
  38 H38           -1.2346    -3.3043    -0.6982 H       
  39 H39            2.6182    -3.2467    -2.5265 H       
  40 H40            3.0370    -5.5338    -1.7161 H       
  41 H41           -0.8139    -5.5897     0.1162 H       
  42 H42            3.9210     2.6346     3.3833 H       
  43 H43            3.6012     4.2135     4.1402 H       
  44 H44            2.2550     3.2536     3.4811 H       
  45 H45            5.0685     5.0924     0.8338 H       
  46 H46            5.2442     5.2873     2.5943 H       
  47 H47            5.5640     3.7083     1.8374 H       
  48 H48            1.5595     5.1963     2.0723 H       
  49 H49            2.9057     6.1562     2.7315 H       
  50 H50            2.7300     5.9613     0.9710 H       
@<TRIPOS>BOND
   1    1    2 1
   2    1    3 1
   3    1   28 1
   4    1   29 1
   5    2   11 1
   6    2    6 1
   7    2   30 1
   8    3    4 1
   9    3    8 am
  10    4    5 1
  11    4   31 1
  12    4   32 1
  13    5    6 1
  14    5   33 1
  15    5   34 1
  16    6    7 am
  17    7   12 2
  18    7   13 2
  19    7   14 1
  20    8    9 1
  21    8   10 2
  22    9   20 1
  23   11   35 1
  24   11   36 1
  25   11   37 1
  26   14   15 ar
  27   14   16 ar
  28   15   19 ar
  29   15   38 1
  30   16   17 ar
  31   16   39 1
  32   17   18 ar
  33   17   40 1
  34   18   19 ar
  35   18   24 1
  36   19   41 1
  37   20   21 1
  38   20   22 1
  39   20   23 1
  40   21   42 1
  41   21   43 1
  42   21   44 1
  43   22   45 1
  44   22   46 1
  45   22   47 1
  46   23   48 1
  47   23   49 1
  48   23   50 1
  49   24   25 1
  50   24   26 1
  51   24   27 1

#	End of record

