#	Name: ASD06710055
#	Creating user name:	WinNT
#	Creation time:	15. 06. 2019 21:08

#	Modifying user name:	WinNT
#	Modification time:	15. 06. 2019 21:08

#	Program:	/corina/corina34_cracker 3.40 0067  02.08.2006

@<TRIPOS>MOLECULE
ASD06710055
  56   58    0    0    0
SMALL
NO_CHARGES


@<TRIPOS>ATOM
   1 C1            -0.1639     0.2765    -1.8860 C.1     
   2 C2            -0.1478     1.6486    -1.4764 C.ar    
   3 C3             0.1603     1.9816    -0.1543 C.ar    
   4 C4             0.1751     3.3022     0.2356 C.ar    
   5 C5            -0.1163     4.3040    -0.6839 C.ar    
   6 C6            -0.4233     3.9767    -1.9999 C.ar    
   7 C7            -0.4345     2.6584    -2.3989 C.ar    
   8 N8            -0.1766    -0.8119    -2.2109 N.1     
   9 C9             0.4753     0.8968     0.8432 C.3     
  10 F10            0.7492     1.4732     2.0881 F       
  11 F11           -0.6219     0.0367     0.9588 F       
  12 F12            1.5911     0.1734     0.4086 F       
  13 C13            0.9800     6.4304    -0.3326 C.2     
  14 N14            0.7292     7.6763     0.1084 N.am    
  15 C15           -0.6923     7.7088     0.4934 C.3     
  16 C16           -1.1739     6.3023     0.1974 C.2     
  17 N17           -0.1011     5.6437    -0.2839 N.am    
  18 S18            2.5097     5.9115    -0.8997 S.2     
  19 O19           -2.2914     5.8613     0.3605 O.2     
  20 C20           -0.8394     8.0258     1.9830 C.3     
  21 C21           -1.4563     8.7287    -0.3534 C.3     
  22 C22            1.6419     8.7359     0.1866 C.ar    
  23 C23            1.7963     9.6005    -0.8889 C.ar    
  24 C24            2.6963    10.6449    -0.8110 C.ar    
  25 C25            3.4461    10.8305     0.3413 C.ar    
  26 C26            3.2923     9.9671     1.4162 C.ar    
  27 C27            2.3885     8.9257     1.3419 C.ar    
  28 O28            4.3324    11.8588     0.4171 O.3     
  29 C29            5.0709    11.9905     1.6334 C.3     
  30 C30            6.0100    13.1942     1.5321 C.3     
  31 N31            5.2171    14.4260     1.4236 N.3     
  32 C32            4.4607    14.6757     2.6580 C.3     
  33 C33            6.0706    15.5736     1.0879 C.3     
  34 H34            0.4131     3.5602     1.2570 H       
  35 H35           -0.6495     4.7573    -2.7111 H       
  36 H36           -0.6691     2.4051    -3.4222 H       
  37 H37           -0.3943     8.9983     2.1932 H       
  38 H38           -1.8966     8.0453     2.2477 H       
  39 H39           -0.3322     7.2597     2.5693 H       
  40 H40           -1.3817     8.4556    -1.4060 H       
  41 H41           -2.5042     8.7376    -0.0538 H       
  42 H42           -1.0271     9.7194    -0.2038 H       
  43 H43            1.2129     9.4560    -1.7862 H       
  44 H44            2.8168    11.3173    -1.6475 H       
  45 H45            3.8763    10.1122     2.3130 H       
  46 H46            2.2655     8.2565     2.1806 H       
  47 H47            4.3802    12.1374     2.4637 H       
  48 H48            5.6559    11.0865     1.8029 H       
  49 H49            6.6362    13.2424     2.4230 H       
  50 H50            6.6411    13.0894     0.6496 H       
  51 H51            5.1529    14.7781     3.4938 H       
  52 H52            3.8826    15.5935     2.5505 H       
  53 H53            3.7855    13.8409     2.8455 H       
  54 H54            6.5656    15.3915     0.1341 H       
  55 H55            5.4583    16.4723     1.0138 H       
  56 H56            6.8210    15.7084     1.8669 H       
@<TRIPOS>BOND
   1    1    2 1
   2    1    8 3
   3    2    3 ar
   4    2    7 ar
   5    3    4 ar
   6    3    9 1
   7    4    5 ar
   8    4   34 1
   9    5    6 ar
  10    5   17 1
  11    6    7 ar
  12    6   35 1
  13    7   36 1
  14    9   10 1
  15    9   11 1
  16    9   12 1
  17   13   14 am
  18   13   17 am
  19   13   18 2
  20   14   15 1
  21   14   22 1
  22   15   16 1
  23   15   20 1
  24   15   21 1
  25   16   17 am
  26   16   19 2
  27   20   37 1
  28   20   38 1
  29   20   39 1
  30   21   40 1
  31   21   41 1
  32   21   42 1
  33   22   23 ar
  34   22   27 ar
  35   23   24 ar
  36   23   43 1
  37   24   25 ar
  38   24   44 1
  39   25   26 ar
  40   25   28 1
  41   26   27 ar
  42   26   45 1
  43   27   46 1
  44   28   29 1
  45   29   30 1
  46   29   47 1
  47   29   48 1
  48   30   31 1
  49   30   49 1
  50   30   50 1
  51   31   32 1
  52   31   33 1
  53   32   51 1
  54   32   52 1
  55   32   53 1
  56   33   54 1
  57   33   55 1
  58   33   56 1

#	End of record

