#	Name: ASD02508081
#	Creating user name:	WinNT
#	Creation time:	15. 06. 2019 20:23

#	Modifying user name:	WinNT
#	Modification time:	15. 06. 2019 20:23

#	Program:	/corina/corina34_cracker 3.40 0067  02.08.2006

@<TRIPOS>MOLECULE
ASD02508081
  36   38    0    0    0
SMALL
NO_CHARGES


@<TRIPOS>ATOM
   1 C1             0.7309     2.1323     0.0787 C.ar    
   2 C2             0.4556     0.7793     0.1955 C.ar    
   3 C3             2.0457     2.5685    -0.0860 C.ar    
   4 C4             3.0768     1.6444    -0.1331 C.ar    
   5 C5             2.7968     0.2904    -0.0162 C.ar    
   6 C6             1.4856    -0.1397     0.1487 C.ar    
   7 N7            -0.0708     3.2766     0.0816 N.am    
   8 C8             0.7428     4.3405    -0.0689 C.2     
   9 O9             2.0137     3.9211    -0.1709 O.3     
  10 N10            3.8370    -0.6439    -0.0639 N.am    
  11 S11            3.9038    -1.8663     1.0512 S.o2    
  12 C12            4.0731    -1.1170     2.6370 C.2     
  13 S13            5.5982    -0.6634     3.3864 S.3     
  14 O14            0.3808     5.5007    -0.1107 O.2     
  15 O15            2.6282    -2.4923     1.0374 O.2     
  16 O16            5.1159    -2.5666     0.8069 O.2     
  17 C17           -1.5286     3.3132     0.2218 C.3     
  18 C18           -1.9013     4.1274     1.4624 C.3     
  19 C19           -2.1442     3.9633    -1.0188 C.3     
  20 C20            3.0638    -0.8017     3.4502 C.2     
  21 C21            3.4402    -0.2191     4.6481 C.2     
  22 C22            4.7549    -0.0594     4.8069 C.2     
  23 H23           -0.5629     0.4438     0.3234 H       
  24 H24            4.0962     1.9771    -0.2608 H       
  25 H25            1.2715    -1.1944     0.2393 H       
  26 H26            4.5190    -0.5757    -0.7503 H       
  27 H27           -1.9092     2.2971     0.3263 H       
  28 H28           -2.9859     4.1546     1.5668 H       
  29 H29           -1.4627     3.6642     2.3463 H       
  30 H30           -1.5207     5.1434     1.3580 H       
  31 H31           -1.8787     3.3833    -1.9026 H       
  32 H32           -3.2288     3.9906    -0.9144 H       
  33 H33           -1.7636     4.9794    -1.1232 H       
  34 H34            2.0313    -0.9867     3.1932 H       
  35 H35            2.7235     0.0849     5.3966 H       
  36 H36            5.2290     0.3755     5.6743 H       
@<TRIPOS>BOND
   1    1    2 ar
   2    1    3 ar
   3    1    7 1
   4    2    6 ar
   5    2   23 1
   6    3    4 ar
   7    3    9 1
   8    4    5 ar
   9    4   24 1
  10    5    6 ar
  11    5   10 1
  12    6   25 1
  13    7    8 am
  14    7   17 1
  15    8    9 1
  16    8   14 2
  17   10   11 am
  18   10   26 1
  19   11   12 1
  20   11   15 2
  21   11   16 2
  22   12   13 1
  23   12   20 2
  24   13   22 1
  25   17   18 1
  26   17   19 1
  27   17   27 1
  28   18   28 1
  29   18   29 1
  30   18   30 1
  31   19   31 1
  32   19   32 1
  33   19   33 1
  34   20   21 1
  35   20   34 1
  36   21   22 2
  37   21   35 1
  38   22   36 1

#	End of record

