#	Name: ASD09720062
#	Creating user name:	WinNT
#	Creation time:	15. 06. 2019 21:22

#	Modifying user name:	WinNT
#	Modification time:	15. 06. 2019 21:22

#	Program:	/corina/corina34_cracker 3.40 0067  02.08.2006

@<TRIPOS>MOLECULE
ASD09720062
  40   42    0    0    0
SMALL
NO_CHARGES


@<TRIPOS>ATOM
   1 C1             0.0084     1.5022    -0.1933 C.2     
   2 C2             0.0631     0.0641    -0.4967 C.2     
   3 N3             1.1933    -0.4913    -0.8003 N.2     
   4 C4            -1.1958    -0.7633    -0.4543 C.3     
   5 O5             2.3762     0.2861    -0.8401 O.3     
   6 S6            -0.8264    -2.4543    -0.9969 S.3     
   7 C7            -2.3904    -3.2578    -0.8828 C.ar    
   8 C8            -2.5110    -4.5994    -1.2248 C.ar    
   9 C9            -3.7382    -5.2257    -1.1341 C.ar    
  10 C10           -4.8468    -4.5194    -0.7040 C.ar    
  11 C11           -4.7307    -3.1840    -0.3632 C.ar    
  12 C12           -3.5053    -2.5529    -0.4450 C.ar    
  13 C13            1.0864     2.3477    -0.0478 C.2     
  14 C14            0.5861     3.6281     0.2357 C.2     
  15 N15           -0.7290     3.5656     0.2614 N.2     
  16 N16           -1.1212     2.2489    -0.0093 N.pl3   
  17 C17           -2.4994     1.7565    -0.0739 C.3     
  18 C18            1.4016     4.8466     0.4677 C.ar    
  19 C19            0.7793     6.0627     0.7412 C.ar    
  20 C20            1.5423     7.1926     0.9561 C.ar    
  21 C21            2.9224     7.1192     0.8998 C.ar    
  22 C22            3.5454     5.9144     0.6286 C.ar    
  23 C23            2.7921     4.7771     0.4183 C.ar    
  24 H24           -1.5822    -0.7849     0.5646 H       
  25 H25           -1.9417    -0.3240    -1.1166 H       
  26 H26            3.1687    -0.2153    -1.0759 H       
  27 H27           -1.6459    -5.1513    -1.5615 H       
  28 H28           -3.8326    -6.2682    -1.3998 H       
  29 H29           -5.8055    -5.0117    -0.6343 H       
  30 H30           -5.5986    -2.6355    -0.0280 H       
  31 H31           -3.4153    -1.5101    -0.1788 H       
  32 H32            2.1276     2.0747    -0.1356 H       
  33 H33           -2.8323     1.7434    -1.1118 H       
  34 H34           -2.5441     0.7470     0.3348 H       
  35 H35           -3.1473     2.4128     0.5071 H       
  36 H36           -0.2983     6.1212     0.7846 H       
  37 H37            1.0609     8.1358     1.1682 H       
  38 H38            3.5156     8.0058     1.0679 H       
  39 H39            4.6233     5.8626     0.5855 H       
  40 H40            3.2797     3.8358     0.2114 H       
@<TRIPOS>BOND
   1    1    2 1
   2    1   13 2
   3    1   16 1
   4    2    3 2
   5    2    4 1
   6    3    5 1
   7    4    6 1
   8    4   24 1
   9    4   25 1
  10    5   26 1
  11    6    7 1
  12    7    8 ar
  13    7   12 ar
  14    8    9 ar
  15    8   27 1
  16    9   10 ar
  17    9   28 1
  18   10   11 ar
  19   10   29 1
  20   11   12 ar
  21   11   30 1
  22   12   31 1
  23   13   14 1
  24   13   32 1
  25   14   15 2
  26   14   18 1
  27   15   16 1
  28   16   17 1
  29   17   33 1
  30   17   34 1
  31   17   35 1
  32   18   19 ar
  33   18   23 ar
  34   19   20 ar
  35   19   36 1
  36   20   21 ar
  37   20   37 1
  38   21   22 ar
  39   21   38 1
  40   22   23 ar
  41   22   39 1
  42   23   40 1

#	End of record

