#	Name: ASD03490124
#	Creating user name:	WinNT
#	Creation time:	15. 06. 2019 20:42

#	Modifying user name:	WinNT
#	Modification time:	15. 06. 2019 20:42

#	Program:	/corina/corina34_cracker 3.40 0067  02.08.2006

@<TRIPOS>MOLECULE
ASD03490124
  49   52    0    0    0
SMALL
NO_CHARGES


@<TRIPOS>ATOM
   1 Cl1            3.5704     2.3647     1.3427 Cl      
   2 Cl2            3.5878    -0.7483     1.5558 Cl      
   3 C3             0.1099     1.3493    -0.3962 C.ar    
   4 C4             0.1227    -0.0284    -0.2985 C.ar    
   5 C5             1.1905    -0.6713     0.3004 C.ar    
   6 C6             2.2496     0.0629     0.8042 C.ar    
   7 C7             2.2424     1.4430     0.7098 C.ar    
   8 C8             1.1708     2.0903     0.1076 C.ar    
   9 C9            -3.4173     6.6572    -0.3373 C.2     
  10 C10           -2.4713     5.6149    -0.2621 C.2     
  11 C11           -1.2381     6.1784    -0.1814 C.2     
  12 N12           -1.3979     7.5309    -0.2048 N.pl3   
  13 N13           -2.7682     7.8040    -0.3026 N.2     
  14 C14           -0.3718     8.4820    -0.1417 C.ar    
  15 C15           -0.4803     9.6707    -0.8510 C.ar    
  16 C16            0.5333    10.6069    -0.7863 C.ar    
  17 C17            1.6551    10.3613    -0.0163 C.ar    
  18 C18            1.7664     9.1780     0.6910 C.ar    
  19 C19            0.7541     8.2405     0.6351 C.ar    
  20 N20           -0.0258     5.4949    -0.0910 N.am    
  21 C21           -0.0113     4.1473    -0.0782 C.2     
  22 O22           -1.0552     3.5274    -0.1456 O.2     
  23 N23            1.1602     3.4867     0.0092 N.am    
  24 C24           -7.2811     5.7746    -0.6135 C.2     
  25 S25           -5.7310     4.9526    -0.4951 S.3     
  26 C26           -4.8830     6.4927    -0.4431 C.2     
  27 C27           -5.7759     7.4996    -0.5148 C.2     
  28 C28           -7.0927     7.0971    -0.6082 C.2     
  29 C29            0.4165    11.8972    -1.5562 C.3     
  30 C30           -0.2561    12.9361    -0.6963 C.2     
  31 O31           -0.6061    12.6563     0.4307 O.2     
  32 N32           -0.4686    14.1761    -1.1797 N.am    
  33 H33           -0.7227     1.8498    -0.8682 H       
  34 H34           -0.7027    -0.6043    -0.6901 H       
  35 H35            1.1976    -1.7487     0.3753 H       
  36 H36           -2.6884     4.5570    -0.2672 H       
  37 H37           -1.3562     9.8630    -1.4529 H       
  38 H38            2.4462    11.0948     0.0327 H       
  39 H39            2.6443     8.9888     1.2910 H       
  40 H40            0.8394     7.3188     1.1914 H       
  41 H41            0.8069     5.9894    -0.0372 H       
  42 H42            1.9960     3.9789     0.0040 H       
  43 H43           -8.2406     5.2840    -0.6844 H       
  44 H44           -5.4841     8.5393    -0.5005 H       
  45 H45           -7.9105     7.7995    -0.6728 H       
  46 H46            1.4111    12.2450    -1.8353 H       
  47 H47           -0.1761    11.7311    -2.4558 H       
  48 H48           -0.1886    14.3998    -2.0811 H       
  49 H49           -0.9015    14.8448    -0.6263 H       
@<TRIPOS>BOND
   1    1    7 1
   2    2    6 1
   3    3    4 ar
   4    3    8 ar
   5    3   33 1
   6    4    5 ar
   7    4   34 1
   8    5    6 ar
   9    5   35 1
  10    6    7 ar
  11    7    8 ar
  12    8   23 1
  13    9   10 1
  14    9   13 2
  15    9   26 1
  16   10   11 2
  17   10   36 1
  18   11   12 1
  19   11   20 1
  20   12   13 1
  21   12   14 1
  22   14   15 ar
  23   14   19 ar
  24   15   16 ar
  25   15   37 1
  26   16   17 ar
  27   16   29 1
  28   17   18 ar
  29   17   38 1
  30   18   19 ar
  31   18   39 1
  32   19   40 1
  33   20   21 am
  34   20   41 1
  35   21   22 2
  36   21   23 am
  37   23   42 1
  38   24   25 1
  39   24   28 2
  40   24   43 1
  41   25   26 1
  42   26   27 2
  43   27   28 1
  44   27   44 1
  45   28   45 1
  46   29   30 1
  47   29   46 1
  48   29   47 1
  49   30   31 2
  50   30   32 am
  51   32   48 1
  52   32   49 1

#	End of record

