#	Name: ASD01940227
#	Creating user name:	WinNT
#	Creation time:	15. 06. 2019 20:12

#	Modifying user name:	WinNT
#	Modification time:	15. 06. 2019 20:12

#	Program:	/corina/corina34_cracker 3.40 0067  02.08.2006

@<TRIPOS>MOLECULE
ASD01940227
  41   43    0    0    0
SMALL
NO_CHARGES


@<TRIPOS>ATOM
   1 C1            -0.6553    -2.9562     1.5934 C.3     
   2 C2             6.0009    -0.1144     7.8010 C.ar    
   3 F3             1.7921     2.4561     3.0785 F       
   4 C4             0.8461     1.5301     3.3484 C.ar    
   5 C5             1.1998     0.1941     3.4827 C.ar    
   6 C6             0.2201    -0.7577     3.7611 C.ar    
   7 C7            -1.1028    -0.3662     3.9027 C.ar    
   8 C8            -1.4491     0.9656     3.7679 C.ar    
   9 C9            -0.4772     1.9136     3.4970 C.ar    
  10 N10            2.5381    -0.1965     3.3382 N.pl3   
  11 N11            0.5712    -2.1073     3.8972 N.am    
  12 C12            3.3934    -0.1764     4.4402 C.ar    
  13 C13            2.9031     0.1728     5.6933 C.ar    
  14 C14            3.7465     0.1933     6.7836 C.ar    
  15 C15            5.0924    -0.1365     6.6295 C.ar    
  16 C16            5.5833    -0.4867     5.3717 C.ar    
  17 C17            4.7355    -0.5116     4.2847 C.ar    
  18 Cl18           5.3452    -0.9474     2.7187 Cl      
  19 F19           -0.8202     3.2144     3.3722 F       
  20 S20           -0.4604    -3.2889     3.3660 S.o2    
  21 O21           -1.6744    -3.0313     4.0581 O.2     
  22 O22            0.2570    -4.4983     3.5704 O.2     
  23 C23            7.3537    -0.4418     7.6672 C.ar    
  24 C24            8.1637    -0.4085     8.7831 C.ar    
  25 N25            7.6775    -0.0738     9.9632 N.ar    
  26 C26            6.4076     0.2420    10.1326 C.ar    
  27 C27            5.5295     0.2400     9.0688 C.ar    
  28 H28            0.3168    -3.0144     1.1038 H       
  29 H29           -1.3270    -3.6952     1.1567 H       
  30 H30           -1.0728    -1.9589     1.4547 H       
  31 H31           -1.8632    -1.1023     4.1180 H       
  32 H32           -2.4801     1.2679     3.8786 H       
  33 H33            2.8696    -0.4808     2.4721 H       
  34 H34            1.4184    -2.3496     4.3026 H       
  35 H35            1.8607     0.4286     5.8127 H       
  36 H36            3.3649     0.4650     7.7567 H       
  37 H37            6.6255    -0.7425     5.2503 H       
  38 H38            7.7582    -0.7171     6.7044 H       
  39 H39            9.2098    -0.6601     8.6898 H       
  40 H40            6.0519     0.5096    11.1166 H       
  41 H41            4.4914     0.4998     9.2146 H       
@<TRIPOS>BOND
   1    1   20 1
   2    1   28 1
   3    1   29 1
   4    1   30 1
   5    2   23 ar
   6    2   15 1
   7    2   27 ar
   8    3    4 1
   9    4    5 ar
  10    4    9 ar
  11    5    6 ar
  12    5   10 1
  13    6    7 ar
  14    6   11 1
  15    7    8 ar
  16    7   31 1
  17    8    9 ar
  18    8   32 1
  19    9   19 1
  20   10   12 1
  21   10   33 1
  22   11   20 am
  23   11   34 1
  24   12   13 ar
  25   12   17 ar
  26   13   14 ar
  27   13   35 1
  28   14   15 ar
  29   14   36 1
  30   15   16 ar
  31   16   17 ar
  32   16   37 1
  33   17   18 1
  34   20   21 2
  35   20   22 2
  36   23   24 ar
  37   23   38 1
  38   24   25 ar
  39   24   39 1
  40   25   26 ar
  41   26   27 ar
  42   26   40 1
  43   27   41 1

#	End of record

