#	Name: ASD02508015
#	Creating user name:	WinNT
#	Creation time:	15. 06. 2019 20:23

#	Modifying user name:	WinNT
#	Modification time:	15. 06. 2019 20:23

#	Program:	/corina/corina34_cracker 3.40 0067  02.08.2006

@<TRIPOS>MOLECULE
ASD02508015
  40   43    0    0    0
SMALL
NO_CHARGES


@<TRIPOS>ATOM
   1 C1            -0.0169     1.3937     0.0097 C.2     
   2 C2             0.0021    -0.0041     0.0020 C.2     
   3 C3            -1.2291    -0.6944     0.0101 C.2     
   4 N4            -2.3793     0.0088     0.0248 N.am    
   5 N5            -2.3709     1.4064     0.0322 N.2     
   6 C6            -1.2539     2.0777     0.0303 C.2     
   7 C7             1.3805     1.8290    -0.0013 C.2     
   8 C8             2.1611     0.6949    -0.0148 C.2     
   9 N9             1.3130    -0.4133    -0.0127 N.pl3   
  10 O10           -1.2522    -1.9149     0.0033 O.2     
  11 C11           -3.6593    -0.7039     0.0327 C.3     
  12 C12           -4.0849    -0.9564     1.4561 C.ar    
  13 C13           -4.8627    -0.0255     2.1201 C.ar    
  14 C14           -3.7025    -2.1200     2.0946 C.ar    
  15 C15           -4.0947    -2.3518     3.4052 C.ar    
  16 C16           -4.8701    -1.4139     4.0709 C.ar    
  17 C17           -5.2544    -0.2540     3.4261 C.ar    
  18 S18            2.4075     3.2578    -0.0039 S.3     
  19 C19            3.8556     2.2647    -0.0232 C.2     
  20 C20            3.5327     0.9776    -0.0271 C.2     
  21 S21            5.5034     2.8887    -0.0366 S.o     
  22 C22            5.2591     4.6862    -0.0246 C.3     
  23 C23            1.7563    -1.8096    -0.0244 C.3     
  24 O24            5.9903     2.5999     1.3762 O.3     
  25 O25           -3.7201    -3.4961     4.0355 O.3     
  26 H26           -1.2734     3.1575     0.0362 H       
  27 H27           -4.4144    -0.1002    -0.4707 H       
  28 H28           -3.5486    -1.6553    -0.4876 H       
  29 H29           -5.1643     0.8817     1.6177 H       
  30 H30           -3.0990    -2.8488     1.5741 H       
  31 H31           -5.1769    -1.5922     5.0910 H       
  32 H32           -5.8581     0.4766     3.9439 H       
  33 H33            4.2800     0.1978    -0.0385 H       
  34 H34            4.7101     4.9723     0.8725 H       
  35 H35            6.2285     5.1846    -0.0318 H       
  36 H36            4.6921     4.9817    -0.9073 H       
  37 H37            1.8765    -2.1612     1.0003 H       
  38 H38            1.0130    -2.4226    -0.5341 H       
  39 H39            2.7094    -1.8838    -0.5481 H       
  40 H40           -2.8791    -3.4278     4.5078 H       
@<TRIPOS>BOND
   1    1    2 2
   2    1    7 1
   3    1    6 1
   4    2    3 1
   5    2    9 1
   6    3    4 am
   7    3   10 2
   8    4    5 1
   9    4   11 1
  10    5    6 2
  11    6   26 1
  12    7    8 2
  13    7   18 1
  14    8    9 1
  15    8   20 1
  16    9   23 1
  17   11   12 1
  18   11   27 1
  19   11   28 1
  20   12   13 ar
  21   12   14 ar
  22   13   17 ar
  23   13   29 1
  24   14   15 ar
  25   14   30 1
  26   15   16 ar
  27   15   25 1
  28   16   17 ar
  29   16   31 1
  30   17   32 1
  31   18   19 1
  32   19   20 2
  33   19   21 1
  34   20   33 1
  35   21   22 1
  36   21   24 1
  37   22   34 1
  38   22   35 1
  39   22   36 1
  40   23   37 1
  41   23   38 1
  42   23   39 1
  43   25   40 1

#	End of record

