#	Name: ASD03331338
#	Creating user name:	WinNT
#	Creation time:	15. 06. 2019 20:39

#	Modifying user name:	WinNT
#	Modification time:	15. 06. 2019 20:39

#	Program:	/corina/corina34_cracker 3.40 0067  02.08.2006

@<TRIPOS>MOLECULE
ASD03331338
  60   62    0    0    0
SMALL
NO_CHARGES


@<TRIPOS>ATOM
   1 N1            -1.6057     0.4704    -0.2582 N.3     
   2 C2            -0.7547    -0.6566    -0.1540 C.2     
   3 C3            -0.0823    -1.2130    -1.1780 C.2     
   4 C4            -0.1394    -0.7159    -2.6131 C.3     
   5 C5             0.4755     0.6925    -2.6200 C.3     
   6 C6            -0.5112     1.7082    -2.0892 C.3     
   7 C7            -0.7928     1.6478    -0.6085 C.3     
   8 N8             0.3759    -2.3585     0.6812 N.2     
   9 N9             0.6302    -2.2679    -0.6964 N.am    
  10 C10           -0.4567    -1.3921     1.0133 C.2     
  11 C11            1.4340    -3.0789    -1.4125 C.2     
  12 O12            1.5729    -2.8972    -2.6058 O.2     
  13 N13            2.0837    -4.0915    -0.8049 N.am    
  14 C14           -2.3414     0.6922     0.9938 C.3     
  15 C15            3.0654    -6.3089    -0.8943 C.2     
  16 C16            2.9573    -4.9730    -1.5832 C.3     
  17 C17            4.3472    -4.3434    -1.6961 C.3     
  18 C18            4.9668    -4.2221    -0.3024 C.3     
  19 O19            2.8353    -6.3993     0.2930 O.2     
  20 N20            3.4179    -7.4033    -1.5977 N.am    
  21 C21            3.6298    -8.6793    -0.9098 C.3     
  22 C22            5.2368    -5.2253    -2.5747 C.3     
  23 C23            4.2280    -2.9533    -2.3240 C.3     
  24 C24           -0.9863    -1.1248     2.3726 C.ar    
  25 C25           -2.1916    -1.6960     2.7777 C.ar    
  26 C26           -2.6806    -1.4444     4.0450 C.ar    
  27 C27           -1.9733    -0.6243     4.9128 C.ar    
  28 C28           -0.7758    -0.0558     4.5127 C.ar    
  29 C29           -0.2775    -0.3067     3.2502 C.ar    
  30 F30           -2.4547    -0.3795     6.1512 F       
  31 F31           -3.8486    -1.9969     4.4397 F       
  32 H32            0.4372    -1.3774    -3.2597 H       
  33 H33           -1.1747    -0.6722    -2.9514 H       
  34 H34            1.3680     0.6978    -1.9944 H       
  35 H35            0.7513     0.9590    -3.6403 H       
  36 H36           -0.1329     2.7034    -2.3226 H       
  37 H37           -1.4538     1.5758    -2.6202 H       
  38 H38           -1.3270     2.5501    -0.3110 H       
  39 H39            0.1525     1.6009    -0.0680 H       
  40 H40            1.9728    -4.2365     0.1478 H       
  41 H41           -1.6409     0.9632     1.7837 H       
  42 H42           -3.0613     1.4987     0.8542 H       
  43 H43           -2.8679    -0.2206     1.2724 H       
  44 H44            2.5390    -5.1111    -2.5802 H       
  45 H45            5.0518    -5.2124     0.1449 H       
  46 H46            5.9570    -3.7736    -0.3828 H       
  47 H47            4.3331    -3.5938     0.3235 H       
  48 H48            3.5313    -7.3460    -2.5593 H       
  49 H49            3.9068    -9.4425    -1.6370 H       
  50 H50            4.4289    -8.5686    -0.1769 H       
  51 H51            2.7112    -8.9761    -0.4037 H       
  52 H52            4.7385    -5.4101    -3.5263 H       
  53 H53            6.1859    -4.7200    -2.7536 H       
  54 H54            5.4197    -6.1739    -2.0700 H       
  55 H55            3.5943    -2.3250    -1.6980 H       
  56 H56            5.2182    -2.5048    -2.4044 H       
  57 H57            3.7866    -3.0397    -3.3168 H       
  58 H58           -2.7423    -2.3336     2.1020 H       
  59 H59           -0.2286     0.5818     5.1912 H       
  60 H60            0.6589     0.1339     2.9414 H       
@<TRIPOS>BOND
   1    1    2 1
   2    1    7 1
   3    1   14 1
   4    2    3 2
   5    2   10 1
   6    3    4 1
   7    3    9 1
   8    4    5 1
   9    4   32 1
  10    4   33 1
  11    5    6 1
  12    5   34 1
  13    5   35 1
  14    6    7 1
  15    6   36 1
  16    6   37 1
  17    7   38 1
  18    7   39 1
  19    8    9 1
  20    8   10 2
  21    9   11 am
  22   10   24 1
  23   11   12 2
  24   11   13 am
  25   13   16 1
  26   13   40 1
  27   14   41 1
  28   14   42 1
  29   14   43 1
  30   15   19 2
  31   15   20 am
  32   15   16 1
  33   16   17 1
  34   16   44 1
  35   17   18 1
  36   17   22 1
  37   17   23 1
  38   18   45 1
  39   18   46 1
  40   18   47 1
  41   20   21 1
  42   20   48 1
  43   21   49 1
  44   21   50 1
  45   21   51 1
  46   22   52 1
  47   22   53 1
  48   22   54 1
  49   23   55 1
  50   23   56 1
  51   23   57 1
  52   24   25 ar
  53   24   29 ar
  54   25   26 ar
  55   25   58 1
  56   26   27 ar
  57   26   31 1
  58   27   28 ar
  59   27   30 1
  60   28   29 ar
  61   28   59 1
  62   29   60 1

#	End of record

