#	Name: ASD01810493
#	Creating user name:	WinNT
#	Creation time:	15. 06. 2019 19:24

#	Modifying user name:	WinNT
#	Modification time:	15. 06. 2019 19:24

#	Program:	/corina/corina34_cracker 3.40 0067  02.08.2006

@<TRIPOS>MOLECULE
ASD01810493
  66   69    0    0    0
SMALL
NO_CHARGES


@<TRIPOS>ATOM
   1 C1            -0.2030     1.3902    -0.0319 C.2     
   2 C2            -0.2330    -0.0749     0.1367 C.ar    
   3 C3             0.8598    -0.8600    -0.2628 C.ar    
   4 C4             0.7887    -2.2153    -0.0872 C.ar    
   5 C5            -0.3570    -2.7726     0.4784 C.ar    
   6 N6            -1.3758    -2.0082     0.8473 N.ar    
   7 C7            -1.3461    -0.6999     0.7010 C.ar    
   8 O8             0.7733     1.9263    -0.5199 O.2     
   9 N9            -1.2600     2.1343     0.3499 N.am    
  10 N10           -0.4325    -4.1436     0.6571 N.pl3   
  11 C11            0.6869    -4.9977     0.2527 C.3     
  12 C12            0.6629    -6.2909     1.0700 C.3     
  13 C13            0.5616    -5.3323    -1.2350 C.3     
  14 C14           -1.1957     3.5298     0.2773 C.ar    
  15 C15           -2.3420     4.2647    -0.0021 C.ar    
  16 C16           -2.2838     5.6437    -0.0749 C.ar    
  17 C17           -1.0870     6.3003     0.1293 C.ar    
  18 C18            0.0696     5.5715     0.4110 C.ar    
  19 C19            0.0098     4.1801     0.4896 C.ar    
  20 C20           -3.6526     3.5556    -0.2269 C.3     
  21 C21            1.3530     6.2724     0.6302 C.2     
  22 O22            2.3960     5.7530     0.2842 O.2     
  23 N23            1.3662     7.4872     1.2137 N.am    
  24 C24            2.6182     8.2469     1.3327 C.3     
  25 C25            2.8185     8.6408     2.7995 C.3     
  26 C26            1.5794     9.3892     3.2963 C.3     
  27 C27            0.3570     8.4730     3.2048 C.3     
  28 C28            0.1279     8.0796     1.7375 C.3     
  29 C29            1.7868     9.8081     4.7290 C.ar    
  30 C30            1.4986     8.9165     5.7470 C.ar    
  31 C31            1.6904     9.3039     7.0611 C.ar    
  32 C32            2.1731    10.5953     7.3087 C.ar    
  33 C33            2.4395    11.4343     6.2254 C.ar    
  34 N34            2.2451    11.0169     4.9916 N.ar    
  35 C35            2.3891    11.0472     8.6502 C.1     
  36 N36            2.5605    11.4057     9.7144 N.1     
  37 H37            1.7366    -0.4048    -0.6991 H       
  38 H38            1.6125    -2.8473    -0.3845 H       
  39 H39           -2.1914    -0.1062     1.0164 H       
  40 H40           -2.0652     1.7021     0.6751 H       
  41 H41           -1.2266    -4.5384     1.0500 H       
  42 H42            1.6262    -4.4736     0.4294 H       
  43 H43           -0.2763    -6.8150     0.8933 H       
  44 H44            1.4958    -6.9264     0.7691 H       
  45 H45            0.7522    -6.0525     2.1299 H       
  46 H46            1.3945    -5.9678    -1.5359 H       
  47 H47           -0.3776    -5.8564    -1.4117 H       
  48 H48            0.5787    -4.4110    -1.8173 H       
  49 H49           -3.1776     6.2093    -0.2927 H       
  50 H50           -1.0455     7.3779     0.0709 H       
  51 H51            0.9007     3.6111     0.7113 H       
  52 H52           -4.1742     3.4460     0.7239 H       
  53 H53           -4.2674     4.1374    -0.9136 H       
  54 H54           -3.4641     2.5704    -0.6536 H       
  55 H55            3.4534     7.6289     1.0030 H       
  56 H56            2.5605     9.1450     0.7178 H       
  57 H57            2.9666     7.7434     3.4003 H       
  58 H58            3.6926     9.2860     2.8869 H       
  59 H59            1.4176    10.2733     2.6795 H       
  60 H60            0.5283     7.5772     3.8016 H       
  61 H61           -0.5207     8.9988     3.5805 H       
  62 H62           -0.1287     8.9644     1.1549 H       
  63 H63           -0.6805     7.3512     1.6750 H       
  64 H64            1.1274     7.9284     5.5180 H       
  65 H65            1.4733     8.6282     7.8752 H       
  66 H66            2.8121    12.4328     6.4004 H       
@<TRIPOS>BOND
   1    1    2 1
   2    1    8 2
   3    1    9 am
   4    2    3 ar
   5    2    7 ar
   6    3    4 ar
   7    3   37 1
   8    4    5 ar
   9    4   38 1
  10    5    6 ar
  11    5   10 1
  12    6    7 ar
  13    7   39 1
  14    9   14 1
  15    9   40 1
  16   10   11 1
  17   10   41 1
  18   11   12 1
  19   11   13 1
  20   11   42 1
  21   12   43 1
  22   12   44 1
  23   12   45 1
  24   13   46 1
  25   13   47 1
  26   13   48 1
  27   14   15 ar
  28   14   19 ar
  29   15   16 ar
  30   15   20 1
  31   16   17 ar
  32   16   49 1
  33   17   18 ar
  34   17   50 1
  35   18   19 ar
  36   18   21 1
  37   19   51 1
  38   20   52 1
  39   20   53 1
  40   20   54 1
  41   21   22 2
  42   21   23 am
  43   23   24 1
  44   23   28 1
  45   24   25 1
  46   24   55 1
  47   24   56 1
  48   25   26 1
  49   25   57 1
  50   25   58 1
  51   26   27 1
  52   26   29 1
  53   26   59 1
  54   27   28 1
  55   27   60 1
  56   27   61 1
  57   28   62 1
  58   28   63 1
  59   29   30 ar
  60   29   34 ar
  61   30   31 ar
  62   30   64 1
  63   31   32 ar
  64   31   65 1
  65   32   33 ar
  66   32   35 1
  67   33   34 ar
  68   33   66 1
  69   35   36 3

#	End of record

