#	Name: ASD00960249
#	Creating user name:	WinNT
#	Creation time:	15. 06. 2019 18:53

#	Modifying user name:	WinNT
#	Modification time:	15. 06. 2019 18:53

#	Program:	/corina/corina34_cracker 3.40 0067  02.08.2006

@<TRIPOS>MOLECULE
ASD00960249
  41   44    0    0    0
SMALL
NO_CHARGES


@<TRIPOS>ATOM
   1 C1            -0.0167     1.3825     0.0096 C.2     
   2 C2             0.0021    -0.0041     0.0020 C.2     
   3 N3             1.2812     1.8106    -0.0005 N.pl3   
   4 C4             2.1000     0.7150     0.0004 C.2     
   5 C5             1.3454    -0.3986    -0.0054 C.2     
   6 N6             1.7985     3.1147     0.0019 N.2     
   7 C7             3.0800     3.2747    -0.2223 C.2     
   8 N8             3.9048     2.1993    -0.5223 N.pl3   
   9 C9             3.6049     0.8615     0.0188 C.3     
  10 N10            4.1040     0.7526     1.3961 N.3     
  11 C11            3.6587     4.6281    -0.1546 C.2     
  12 N12            2.9758     5.7774     0.1276 N.pl3   
  13 C13            3.8812     6.7994     0.0891 C.2     
  14 C14            5.0808     6.2554    -0.2122 C.2     
  15 N15            4.9233     4.9367    -0.3500 N.2     
  16 C16           -1.2079     2.2317     0.0202 C.2     
  17 O17           -2.3147     1.7270     0.0234 O.2     
  18 O18           -1.0790     3.5746     0.0263 O.3     
  19 C19           -2.2843     4.3421     0.0365 C.3     
  20 C20           -1.9450     5.8104     0.0422 C.ar    
  21 C21           -1.7956     6.4899    -1.1523 C.ar    
  22 C22           -1.4842     7.8367    -1.1471 C.ar    
  23 C23           -1.3227     8.5041     0.0527 C.ar    
  24 C24           -1.4730     7.8248     1.2472 C.ar    
  25 C25           -1.7886     6.4790     1.2420 C.ar    
  26 H26           -0.8581    -0.6571     0.0019 H       
  27 H27            1.7104    -1.4150    -0.0140 H       
  28 H28            4.6807     2.3285    -1.0901 H       
  29 H29            4.0622     0.0948    -0.6067 H       
  30 H30            5.1024     0.8941     1.4311 H       
  31 H31            3.6256     1.3984     2.0061 H       
  32 H32            2.0278     5.8532     0.3188 H       
  33 H33            3.6769     7.8451     0.2660 H       
  34 H34            6.0101     6.7951    -0.3192 H       
  35 H35           -2.8714     4.1083    -0.8516 H       
  36 H36           -2.8621     4.0993     0.9283 H       
  37 H37           -1.9217     5.9684    -2.0896 H       
  38 H38           -1.3668     8.3674    -2.0803 H       
  39 H39           -1.0788     9.5562     0.0567 H       
  40 H40           -1.3465     8.3462     2.1845 H       
  41 H41           -1.9097     5.9491     2.1752 H       
@<TRIPOS>BOND
   1    1    2 2
   2    1    3 1
   3    1   16 1
   4    2    5 1
   5    2   26 1
   6    3    4 1
   7    3    6 1
   8    4    5 2
   9    4    9 1
  10    5   27 1
  11    6    7 2
  12    7    8 1
  13    7   11 1
  14    8    9 1
  15    8   28 1
  16    9   10 1
  17    9   29 1
  18   10   30 1
  19   10   31 1
  20   11   12 1
  21   11   15 2
  22   12   13 1
  23   12   32 1
  24   13   14 2
  25   13   33 1
  26   14   15 1
  27   14   34 1
  28   16   17 2
  29   16   18 1
  30   18   19 1
  31   19   20 1
  32   19   35 1
  33   19   36 1
  34   20   21 ar
  35   20   25 ar
  36   21   22 ar
  37   21   37 1
  38   22   23 ar
  39   22   38 1
  40   23   24 ar
  41   23   39 1
  42   24   25 ar
  43   24   40 1
  44   25   41 1

#	End of record

