#	Name: ASD05730035
#	Creating user name:	WinNT
#	Creation time:	15. 06. 2019 21:02

#	Modifying user name:	WinNT
#	Modification time:	15. 06. 2019 21:02

#	Program:	/corina/corina34_cracker 3.40 0067  02.08.2006

@<TRIPOS>MOLECULE
ASD05730035
  63   67    0    0    0
SMALL
NO_CHARGES


@<TRIPOS>ATOM
   1 N1             0.4810     1.9074     0.1490 N.3     
   2 C2            -0.0467     0.6071    -0.2871 C.3     
   3 C3             0.7067     0.1471    -1.5374 C.3     
   4 N4             2.1419     0.0552    -1.2352 N.3     
   5 C5             2.6697     1.3555    -0.7991 C.3     
   6 C6             1.9163     1.8155     0.4512 C.3     
   7 C7             2.8567    -0.4329    -2.3369 C.ar    
   8 C8             2.5653    -1.6877    -2.8525 C.ar    
   9 C9             3.2703    -2.1696    -3.9386 C.ar    
  10 C10            4.2706    -1.3987    -4.5153 C.ar    
  11 C11            4.5636    -0.1423    -4.0003 C.ar    
  12 C12            3.8549     0.3426    -2.9175 C.ar    
  13 F13            4.1389     1.5646    -2.4162 F       
  14 N14            4.9847    -1.8880    -5.6163 N.pl3   
  15 C15            5.4077    -1.0218    -6.6055 C.ar    
  16 N16            6.1763    -1.4897    -7.5772 N.ar    
  17 C17            6.6023    -0.6873    -8.5461 C.ar    
  18 C18            6.2197     0.6714    -8.5187 C.ar    
  19 C19            5.4044     1.1180    -7.4678 C.ar    
  20 N20            5.0240     0.2490    -6.5502 N.ar    
  21 N21            7.3993    -1.1634    -9.5565 N.am    
  22 C22            7.8291    -0.3450   -10.5361 C.2     
  23 C23            7.4505     1.0696   -10.5374 C.2     
  24 C24            6.6544     1.5534    -9.5340 C.2     
  25 C25            7.7870    -2.5761    -9.5696 C.3     
  26 C26            6.7483    -3.3827   -10.3516 C.3     
  27 O27            8.5368    -0.7837   -11.4252 O.2     
  28 C28            7.9243     1.9691   -11.6152 C.ar    
  29 C29            8.9434     2.8866   -11.3638 C.ar    
  30 C30            9.3806     3.7220   -12.3717 C.ar    
  31 C31            8.8097     3.6511   -13.6296 C.ar    
  32 C32            7.7980     2.7431   -13.8864 C.ar    
  33 C33            7.3560     1.8976   -12.8881 C.ar    
  34 Cl34           6.0864     0.7586   -13.2114 Cl      
  35 S35            9.3731     4.7222   -14.9103 S.o     
  36 C36           10.7061     3.7663   -15.6848 C.3     
  37 O37            8.2593     4.7811   -15.7907 O.2     
  38 H38            0.3020     2.6205    -0.5421 H       
  39 H39            0.0880    -0.1255     0.5088 H       
  40 H40           -1.1078     0.7038    -0.5169 H       
  41 H41            0.3367    -0.8307    -1.8457 H       
  42 H42            0.5497     0.8658    -2.3416 H       
  43 H43            3.7308     1.2588    -0.5692 H       
  44 H44            2.5350     2.0880    -1.5949 H       
  45 H45            2.2863     2.7933     0.7596 H       
  46 H46            2.0733     1.0967     1.2554 H       
  47 H47            1.7873    -2.2881    -2.4046 H       
  48 H48            3.0434    -3.1466    -4.3390 H       
  49 H49            5.3420     0.4572    -4.4487 H       
  50 H50            5.1823    -2.8353    -5.6841 H       
  51 H51            5.0917     2.1503    -7.4129 H       
  52 H52            6.3642     2.5936    -9.5178 H       
  53 H53            8.7619    -2.6809   -10.0456 H       
  54 H54            7.8404    -2.9477    -8.5463 H       
  55 H55            5.7734    -3.2779    -9.8756 H       
  56 H56            6.6949    -3.0111   -11.3749 H       
  57 H57            7.0368    -4.4338   -10.3613 H       
  58 H58            9.3898     2.9438   -10.3820 H       
  59 H59           10.1700     4.4330   -12.1776 H       
  60 H60            7.3559     2.6927   -14.8705 H       
  61 H61           10.3048     2.8286   -16.0692 H       
  62 H62           11.1360     4.3410   -16.5052 H       
  63 H63           11.4786     3.5549   -14.9454 H       
@<TRIPOS>BOND
   1    1    2 1
   2    1    6 1
   3    1   38 1
   4    2    3 1
   5    2   39 1
   6    2   40 1
   7    3    4 1
   8    3   41 1
   9    3   42 1
  10    4    5 1
  11    4    7 1
  12    5    6 1
  13    5   43 1
  14    5   44 1
  15    6   45 1
  16    6   46 1
  17    7    8 ar
  18    7   12 ar
  19    8    9 ar
  20    8   47 1
  21    9   10 ar
  22    9   48 1
  23   10   11 ar
  24   10   14 1
  25   11   12 ar
  26   11   49 1
  27   12   13 1
  28   14   15 1
  29   14   50 1
  30   15   16 ar
  31   15   20 ar
  32   16   17 ar
  33   17   18 ar
  34   17   21 1
  35   18   19 ar
  36   18   24 1
  37   19   20 ar
  38   19   51 1
  39   21   22 am
  40   21   25 1
  41   22   23 1
  42   22   27 2
  43   23   24 2
  44   23   28 1
  45   24   52 1
  46   25   26 1
  47   25   53 1
  48   25   54 1
  49   26   55 1
  50   26   56 1
  51   26   57 1
  52   28   29 ar
  53   28   33 ar
  54   29   30 ar
  55   29   58 1
  56   30   31 ar
  57   30   59 1
  58   31   32 ar
  59   31   35 1
  60   32   33 ar
  61   32   60 1
  62   33   34 1
  63   35   36 1
  64   35   37 2
  65   36   61 1
  66   36   62 1
  67   36   63 1

#	End of record

