#	Name: ASD01870506
#	Creating user name:	WinNT
#	Creation time:	15. 06. 2019 19:39

#	Modifying user name:	WinNT
#	Modification time:	15. 06. 2019 19:39

#	Program:	/corina/corina34_cracker 3.40 0067  02.08.2006

@<TRIPOS>MOLECULE
ASD01870506
  40   43    0    0    0
SMALL
NO_CHARGES


@<TRIPOS>ATOM
   1 C1            -0.0303     1.3979    -0.2318 C.ar    
   2 C2            -0.0272     0.0159    -0.1041 C.ar    
   3 C3             1.1535    -0.6624     0.1416 C.ar    
   4 C4             2.3481     0.0287     0.2634 C.ar    
   5 C5             2.3599     1.4089     0.1378 C.ar    
   6 C6             1.1571     2.1009    -0.1126 C.ar    
   7 C7             3.4140     2.4421     0.2057 C.2     
   8 N8             2.8482     3.6461     0.0063 N.am    
   9 C9             1.5218     3.5315    -0.1870 C.2     
  10 O10            0.7531     4.4495    -0.3904 O.2     
  11 O11            4.5941     2.2384     0.4084 O.2     
  12 C12            3.5490     4.8620     0.0024 C.ar    
  13 C13            4.0793     5.3536    -1.1826 C.ar    
  14 C14            4.7692     6.5493    -1.1868 C.ar    
  15 C15            4.9327     7.2614    -0.0053 C.ar    
  16 C16            4.4021     6.7704     1.1803 C.ar    
  17 C17            3.7072     5.5763     1.1834 C.ar    
  18 Cl18           3.0381     4.9650     2.6641 Cl      
  19 N19            5.6326     8.4735    -0.0098 N.am    
  20 C20            6.4048     8.8097     1.0424 C.2     
  21 C21            7.2204    10.0333     0.9951 C.2     
  22 O22            6.4274     8.1014     2.0311 O.2     
  23 C23            8.0591    10.5116     1.9871 C.2     
  24 C24            8.6049    11.6902     1.4735 C.2     
  25 N25            8.1129    11.8713     0.2745 N.2     
  26 N26            7.3063    10.9220    -0.0387 N.pl3   
  27 C27            8.3264     9.8923     3.3347 C.3     
  28 Cl28          -1.5143    -0.8672    -0.2531 Cl      
  29 H29           -0.9538     1.9225    -0.4276 H       
  30 H30            1.1437    -1.7380     0.2394 H       
  31 H31            3.2665    -0.5060     0.4560 H       
  32 H32            3.9524     4.8004    -2.1014 H       
  33 H33            5.1822     6.9311    -2.1088 H       
  34 H34            4.5295     7.3236     2.0991 H       
  35 H35            5.5619     9.0715    -0.7703 H       
  36 H36            9.3080    12.3374     1.9767 H       
  37 H37            6.8291    10.8487    -0.8800 H       
  38 H38            9.1707     9.2071     3.2586 H       
  39 H39            8.5587    10.6764     4.0553 H       
  40 H40            7.4433     9.3454     3.6649 H       
@<TRIPOS>BOND
   1    1    2 ar
   2    1    6 ar
   3    1   29 1
   4    2    3 ar
   5    2   28 1
   6    3    4 ar
   7    3   30 1
   8    4    5 ar
   9    4   31 1
  10    5    7 1
  11    5    6 ar
  12    6    9 1
  13    7    8 am
  14    7   11 2
  15    8    9 am
  16    8   12 1
  17    9   10 2
  18   12   13 ar
  19   12   17 ar
  20   13   14 ar
  21   13   32 1
  22   14   15 ar
  23   14   33 1
  24   15   16 ar
  25   15   19 1
  26   16   17 ar
  27   16   34 1
  28   17   18 1
  29   19   20 am
  30   19   35 1
  31   20   21 1
  32   20   22 2
  33   21   23 2
  34   21   26 1
  35   23   24 1
  36   23   27 1
  37   24   25 2
  38   24   36 1
  39   25   26 1
  40   26   37 1
  41   27   38 1
  42   27   39 1
  43   27   40 1

#	End of record

