#	Name: ASD01811782
#	Creating user name:	WinNT
#	Creation time:	15. 06. 2019 19:27

#	Modifying user name:	WinNT
#	Modification time:	15. 06. 2019 19:27

#	Program:	/corina/corina34_cracker 3.40 0067  02.08.2006

@<TRIPOS>MOLECULE
ASD01811782
  59   63    0    0    0
SMALL
NO_CHARGES


@<TRIPOS>ATOM
   1 C1            -0.0167     1.3805     0.0096 C.ar    
   2 C2             0.0021    -0.0041     0.0020 C.ar    
   3 C3            -1.1845    -0.7161     0.0090 C.ar    
   4 C4            -2.3942    -0.0535     0.0241 C.ar    
   5 C5            -2.4213     1.3425     0.0323 C.ar    
   6 C6            -1.2177     2.0512     0.0304 C.ar    
   7 C7             1.2777     2.1522     0.0014 C.3     
   8 C8             1.3184    -0.7376    -0.0144 C.3     
   9 C9            -1.1549    -2.2228    -0.0004 C.3     
  10 C10           -1.0078    -2.7311     1.4107 C.ar    
  11 C11           -2.1340    -2.9877     2.1716 C.ar    
  12 C12           -2.0049    -3.4538     3.4644 C.ar    
  13 C13           -0.7375    -3.6658     4.0024 C.ar    
  14 C14            0.3934    -3.4057     3.2316 C.ar    
  15 C15            0.2529    -2.9448     1.9382 C.ar    
  16 C16           -0.5926    -4.1665     5.3924 C.2     
  17 N17           -1.5840    -4.4607     6.2524 N.2     
  18 N18           -1.0666    -4.8649     7.3583 N.2     
  19 N19            0.2178    -4.8568     7.2839 N.pl3   
  20 C20            0.5735    -4.4266     6.0524 C.2     
  21 C21            1.1395    -5.2532     8.3515 C.3     
  22 C22           -3.5309     2.3149     0.0477 C.2     
  23 N23           -3.0504     3.5703     0.0501 N.am    
  24 C24           -1.5841     3.5142     0.0402 C.3     
  25 O25           -4.7107     2.0226     0.0563 O.2     
  26 C26           -3.8575     4.7928     0.0640 C.3     
  27 C27           -4.1248     5.2110     1.5113 C.3     
  28 O28           -4.8630     4.1877     2.1977 O.3     
  29 C29           -5.7997     4.7837     3.1028 C.3     
  30 C30           -5.6803     6.3158     2.9556 C.3     
  31 C31           -5.0371     6.4628     1.5497 C.3     
  32 H32           -3.3180    -0.6130     0.0291 H       
  33 H33            1.5800     2.3437    -1.0282 H       
  34 H34            1.1390     3.0999     0.5217 H       
  35 H35            2.0504     1.5710     0.5048 H       
  36 H36            1.6456    -0.9199     1.0092 H       
  37 H37            1.1977    -1.6891    -0.5323 H       
  38 H38            2.0641    -0.1342    -0.5322 H       
  39 H39           -2.0831    -2.6018    -0.4281 H       
  40 H40           -0.3118    -2.5659    -0.5999 H       
  41 H41           -3.1160    -2.8227     1.7536 H       
  42 H42           -2.8849    -3.6535     4.0578 H       
  43 H43            1.3783    -3.5683     3.6439 H       
  44 H44            1.1289    -2.7432     1.3396 H       
  45 H45            1.5767    -4.3063     5.6710 H       
  46 H46            1.3544    -6.3186     8.2690 H       
  47 H47            2.0666    -4.6873     8.2597 H       
  48 H48            0.6832    -5.0485     9.3200 H       
  49 H49           -1.1849     3.9949     0.9333 H       
  50 H50           -1.1966     4.0028    -0.8538 H       
  51 H51           -3.3198     5.5891    -0.4508 H       
  52 H52           -4.8052     4.6083    -0.4418 H       
  53 H53           -3.1851     5.4099     2.0267 H       
  54 H54           -6.8113     4.4657     2.8505 H       
  55 H55           -5.5631     4.4909     4.1257 H       
  56 H56           -6.6633     6.7860     2.9836 H       
  57 H57           -5.0290     6.7299     3.7254 H       
  58 H58           -4.4504     7.3788     1.4799 H       
  59 H59           -5.7932     6.4220     0.7656 H       
@<TRIPOS>BOND
   1    1    2 ar
   2    1    7 1
   3    1    6 ar
   4    2    3 ar
   5    2    8 1
   6    3    4 ar
   7    3    9 1
   8    4    5 ar
   9    4   32 1
  10    5    6 ar
  11    5   22 1
  12    6   24 1
  13    7   33 1
  14    7   34 1
  15    7   35 1
  16    8   36 1
  17    8   37 1
  18    8   38 1
  19    9   10 1
  20    9   39 1
  21    9   40 1
  22   10   11 ar
  23   10   15 ar
  24   11   12 ar
  25   11   41 1
  26   12   13 ar
  27   12   42 1
  28   13   14 ar
  29   13   16 1
  30   14   15 ar
  31   14   43 1
  32   15   44 1
  33   16   17 1
  34   16   20 2
  35   17   18 2
  36   18   19 1
  37   19   20 1
  38   19   21 1
  39   20   45 1
  40   21   46 1
  41   21   47 1
  42   21   48 1
  43   22   23 am
  44   22   25 2
  45   23   24 1
  46   23   26 1
  47   24   49 1
  48   24   50 1
  49   26   27 1
  50   26   51 1
  51   26   52 1
  52   27   28 1
  53   27   31 1
  54   27   53 1
  55   28   29 1
  56   29   30 1
  57   29   54 1
  58   29   55 1
  59   30   31 1
  60   30   56 1
  61   30   57 1
  62   31   58 1
  63   31   59 1

#	End of record

