#	Name: ASD01870466
#	Creating user name:	WinNT
#	Creation time:	15. 06. 2019 19:39

#	Modifying user name:	WinNT
#	Modification time:	15. 06. 2019 19:39

#	Program:	/corina/corina34_cracker 3.40 0067  02.08.2006

@<TRIPOS>MOLECULE
ASD01870466
  39   42    0    0    0
SMALL
NO_CHARGES


@<TRIPOS>ATOM
   1 N1            -0.0182     1.3103     0.0344 N.ar    
   2 C2             0.0874     0.0004     0.0712 C.ar    
   3 C3            -0.7580    -0.8042    -0.6771 C.ar    
   4 C4            -1.7270    -0.2163    -1.4735 C.ar    
   5 C5            -1.8167     1.1685    -1.4931 C.ar    
   6 C6            -0.9326     1.9149    -0.7150 C.ar    
   7 C7            -1.0140     3.3931    -0.7244 C.2     
   8 O8            -1.8491     3.9514    -1.4086 O.2     
   9 N9            -0.1620     4.1197     0.0257 N.am    
  10 C10           -0.1736     5.5167    -0.0570 C.ar    
  11 C11           -1.3729     6.1913    -0.2449 C.ar    
  12 C12           -1.3847     7.5696    -0.3266 C.ar    
  13 C13           -0.1982     8.2816    -0.2204 C.ar    
  14 C14            1.0024     7.6074    -0.0323 C.ar    
  15 C15            1.0137     6.2291     0.0546 C.ar    
  16 N16           -0.2107     9.6825    -0.3034 N.am    
  17 C17           -0.3541    10.5061     0.7505 C.2     
  18 C18           -0.3160    11.9018     0.2657 C.ar    
  19 C19           -0.1417    11.8199    -1.1315 C.ar    
  20 C20           -0.0749    10.3783    -1.4467 C.2     
  21 C21           -0.0661    12.9809    -1.8859 C.ar    
  22 C22           -0.1628    14.2159    -1.2585 C.ar    
  23 C23           -0.3335    14.2943     0.1097 C.ar    
  24 C24           -0.4107    13.1411     0.8766 C.ar    
  25 O25           -0.4922    10.1606     1.9067 O.2     
  26 O26            0.0749     9.9009    -2.5534 O.2     
  27 Cl27           0.1489    12.8909    -3.6062 Cl      
  28 Cl28          -3.0114     1.9599    -2.4730 Cl      
  29 Cl29           2.4867     8.4979     0.1000 Cl      
  30 H30            0.8438    -0.4554     0.6929 H       
  31 H31           -0.6617    -1.8793    -0.6398 H       
  32 H32           -2.3971    -0.8217    -2.0658 H       
  33 H33            0.4592     3.6743     0.6229 H       
  34 H34           -2.2965     5.6376    -0.3276 H       
  35 H35           -2.3175     8.0938    -0.4734 H       
  36 H36            1.9459     5.7050     0.2053 H       
  37 H37           -0.1038    15.1212    -1.8445 H       
  38 H38           -0.4074    15.2607     0.5861 H       
  39 H39           -0.5446    13.2093     1.9461 H       
@<TRIPOS>BOND
   1    1    2 ar
   2    1    6 ar
   3    2    3 ar
   4    2   30 1
   5    3    4 ar
   6    3   31 1
   7    4    5 ar
   8    4   32 1
   9    5    6 ar
  10    5   28 1
  11    6    7 1
  12    7    8 2
  13    7    9 am
  14    9   10 1
  15    9   33 1
  16   10   11 ar
  17   10   15 ar
  18   11   12 ar
  19   11   34 1
  20   12   13 ar
  21   12   35 1
  22   13   14 ar
  23   13   16 1
  24   14   15 ar
  25   14   29 1
  26   15   36 1
  27   16   17 am
  28   16   20 am
  29   17   18 1
  30   17   25 2
  31   18   24 ar
  32   18   19 ar
  33   19   20 1
  34   19   21 ar
  35   20   26 2
  36   21   22 ar
  37   21   27 1
  38   22   23 ar
  39   22   37 1
  40   23   24 ar
  41   23   38 1
  42   24   39 1

#	End of record

