#	Name: ASD01815612
#	Creating user name:	WinNT
#	Creation time:	15. 06. 2019 19:33

#	Modifying user name:	WinNT
#	Modification time:	15. 06. 2019 19:33

#	Program:	/corina/corina34_cracker 3.40 0067  02.08.2006

@<TRIPOS>MOLECULE
ASD01815612
  37   39    0    0    0
SMALL
NO_CHARGES


@<TRIPOS>ATOM
   1 C1             0.5227     1.8009     0.6577 C.ar    
   2 C2             0.3682     0.4221     0.6637 C.ar    
   3 C3             1.4443    -0.4083     0.4281 C.ar    
   4 C4             2.7033     0.1378     0.1803 C.ar    
   5 C5             2.8551     1.5344     0.1747 C.ar    
   6 C6             1.7575     2.3610     0.4151 C.ar    
   7 N7             3.7875    -0.6805    -0.0562 N.pl3   
   8 C8             5.0157    -0.2057    -0.2981 C.2     
   9 C9             5.2883     1.1473    -0.3292 C.2     
  10 C10            4.1919     2.0992    -0.0887 C.2     
  11 O11            4.3806     3.3029    -0.1058 O.2     
  12 C12            6.6506     1.6291    -0.5979 C.2     
  13 O13            7.5486     0.8339    -0.7951 O.2     
  14 O14            6.9042     2.9528    -0.6256 O.3     
  15 C15            3.5871    -2.1316    -0.0416 C.3     
  16 C16            3.7172    -2.6426     1.3702 C.ar    
  17 C17            4.9602    -2.6957     1.9748 C.ar    
  18 C18            5.0788    -3.1645     3.2713 C.ar    
  19 C19            3.9556    -3.5793     3.9613 C.ar    
  20 C20            2.7135    -3.5259     3.3564 C.ar    
  21 C21            2.5937    -3.0528     2.0632 C.ar    
  22 F22            1.2788    -1.7490     0.4380 F       
  23 Cl23           6.3709    -2.1750     1.1073 Cl      
  24 C24            1.4890    -3.9789     4.1091 C.3     
  25 F25            1.8598    -4.4066     5.3885 F       
  26 F26            0.5873    -2.9147     4.2163 F       
  27 F27            0.8833    -5.0359     3.4214 F       
  28 H28           -0.3301     2.4381     0.8398 H       
  29 H29           -0.6049    -0.0056     0.8551 H       
  30 H30            1.8751     3.4345     0.4103 H       
  31 H31            5.8201    -0.9044    -0.4745 H       
  32 H32            7.8154     3.2215    -0.8063 H       
  33 H33            2.5927    -2.3649    -0.4222 H       
  34 H34            4.3382    -2.6085    -0.6713 H       
  35 H35            6.0491    -3.2066     3.7438 H       
  36 H36            4.0481    -3.9456     4.9730 H       
  37 H37            1.6231    -3.0111     1.5913 H       
@<TRIPOS>BOND
   1    1    2 ar
   2    1    6 ar
   3    1   28 1
   4    2    3 ar
   5    2   29 1
   6    3    4 ar
   7    3   22 1
   8    4    5 ar
   9    4    7 1
  10    5    6 ar
  11    5   10 1
  12    6   30 1
  13    7    8 1
  14    7   15 1
  15    8    9 2
  16    8   31 1
  17    9   10 1
  18    9   12 1
  19   10   11 2
  20   12   13 2
  21   12   14 1
  22   14   32 1
  23   15   16 1
  24   15   33 1
  25   15   34 1
  26   16   17 ar
  27   16   21 ar
  28   17   18 ar
  29   17   23 1
  30   18   19 ar
  31   18   35 1
  32   19   20 ar
  33   19   36 1
  34   20   21 ar
  35   20   24 1
  36   21   37 1
  37   24   25 1
  38   24   26 1
  39   24   27 1

#	End of record

