#	Name: ASD01120201
#	Creating user name:	WinNT
#	Creation time:	15. 06. 2019 18:59

#	Modifying user name:	WinNT
#	Modification time:	15. 06. 2019 18:59

#	Program:	/corina/corina34_cracker 3.40 0067  02.08.2006

@<TRIPOS>MOLECULE
ASD01120201
  39   42    0    0    0
SMALL
NO_CHARGES


@<TRIPOS>ATOM
   1 C1            -0.0167     1.3828     0.0096 C.ar    
   2 C2             0.0021    -0.0041     0.0020 C.ar    
   3 C3            -1.1785    -0.7198     0.0090 C.ar    
   4 C4            -2.3914    -0.0514     0.0242 C.ar    
   5 C5            -2.4156     1.3515     0.0324 C.ar    
   6 C6            -1.2159     2.0636     0.0305 C.ar    
   7 O7            -3.6828    -0.4556     0.0344 O.3     
   8 C8            -4.4648     0.6381     0.0482 C.2     
   9 N9            -3.7266     1.7186     0.0472 N.2     
  10 Cl10           1.4775     2.2664     0.0001 Cl      
  11 N11           -5.8411     0.6234     0.0614 N.am    
  12 S12           -6.6843     2.0485     0.0777 S.o2    
  13 O13           -8.0618     1.7001     0.0544 O.2     
  14 O14           -6.1020     2.8477     1.0983 O.2     
  15 C15           -6.3526     2.8683    -1.4462 C.ar    
  16 C16           -7.1632     2.6382    -2.5431 C.ar    
  17 C17           -6.9079     3.2777    -3.7393 C.ar    
  18 C18           -5.8313     4.1563    -3.8407 C.ar    
  19 C19           -5.0179     4.3844    -2.7326 C.ar    
  20 C20           -5.2858     3.7439    -1.5397 C.ar    
  21 C21           -5.5516     4.8463    -5.1243 C.ar    
  22 C22           -4.4749     5.7250    -5.2257 C.ar    
  23 C23           -4.2194     6.3641    -6.4220 C.ar    
  24 C24           -5.0301     6.1341    -7.5189 C.ar    
  25 C25           -6.1005     5.2632    -7.4237 C.ar    
  26 C26           -6.3612     4.6136    -6.2342 C.ar    
  27 H27            0.9466    -0.5276    -0.0098 H       
  28 H28           -1.1563    -1.7995     0.0023 H       
  29 H29           -1.2263     3.1436     0.0371 H       
  30 H30           -6.3171    -0.2218     0.0612 H       
  31 H31           -7.9972     1.9567    -2.4635 H       
  32 H32           -7.5413     3.0970    -4.5953 H       
  33 H33           -4.1822     5.0644    -2.8057 H       
  34 H34           -4.6561     3.9199    -0.6801 H       
  35 H35           -3.8418     5.9059    -4.3697 H       
  36 H36           -3.3852     7.0454    -6.5017 H       
  37 H37           -4.8267     6.6366    -8.4530 H       
  38 H38           -6.7305     5.0875    -8.2832 H       
  39 H39           -7.1970     3.9336    -6.1610 H       
@<TRIPOS>BOND
   1    1    2 ar
   2    1   10 1
   3    1    6 ar
   4    2    3 ar
   5    2   27 1
   6    3    4 ar
   7    3   28 1
   8    4    5 ar
   9    4    7 1
  10    5    6 ar
  11    5    9 1
  12    6   29 1
  13    7    8 1
  14    8    9 2
  15    8   11 1
  16   11   12 am
  17   11   30 1
  18   12   13 2
  19   12   14 2
  20   12   15 1
  21   15   16 ar
  22   15   20 ar
  23   16   17 ar
  24   16   31 1
  25   17   18 ar
  26   17   32 1
  27   18   19 ar
  28   18   21 1
  29   19   20 ar
  30   19   33 1
  31   20   34 1
  32   21   22 ar
  33   21   26 ar
  34   22   23 ar
  35   22   35 1
  36   23   24 ar
  37   23   36 1
  38   24   25 ar
  39   24   37 1
  40   25   26 ar
  41   25   38 1
  42   26   39 1

#	End of record

