#	Name: ASD01810786
#	Creating user name:	WinNT
#	Creation time:	15. 06. 2019 19:25

#	Modifying user name:	WinNT
#	Modification time:	15. 06. 2019 19:25

#	Program:	/corina/corina34_cracker 3.40 0067  02.08.2006

@<TRIPOS>MOLECULE
ASD01810786
  63   67    0    0    0
SMALL
NO_CHARGES


@<TRIPOS>ATOM
   1 C1             0.0095     1.3398    -0.0976 C.ar    
   2 C2             0.0367    -0.0563    -0.0087 C.ar    
   3 C3            -1.2151    -0.8486    -0.0195 C.2     
   4 N4            -1.2695    -2.0135    -0.6952 N.am    
   5 O5            -2.1927    -0.4482     0.5809 O.2     
   6 C6            -0.1391    -2.4506    -1.5258 C.3     
   7 C7             1.2849    -0.6786     0.0902 C.ar    
   8 C8             2.4171     0.1344     0.0935 C.ar    
   9 N9             2.2839     1.4486     0.0046 N.ar    
  10 N10            1.1386     2.0191    -0.0860 N.ar    
  11 N11            3.6857    -0.4345     0.1904 N.am    
  12 C12            4.7823     0.3420     0.0853 C.2     
  13 C13           -0.6528    -2.7562    -2.9363 C.3     
  14 C14           -1.7976    -3.7682    -2.8498 C.3     
  15 C15           -2.9478    -3.1715    -2.0355 C.3     
  16 C16           -2.4579    -2.8733    -0.6104 C.3     
  17 C17           -2.2829    -4.0971    -4.2380 C.ar    
  18 C18           -2.2273    -5.4016    -4.6960 C.ar    
  19 C19           -2.6703    -5.7098    -5.9655 C.ar    
  20 C20           -3.1757    -4.7017    -6.7889 C.ar    
  21 C21           -3.2289    -3.3874    -6.3204 C.ar    
  22 C22           -2.7873    -3.0942    -5.0468 C.ar    
  23 C23           -3.6369    -5.0142    -8.1081 C.1     
  24 N24           -4.0028    -5.2621    -9.1546 N.1     
  25 O25            4.6665     1.5496     0.0025 O.2     
  26 C26            6.1229    -0.2731     0.0706 C.ar    
  27 C27            6.2674    -1.6581     0.1650 C.ar    
  28 N28            7.4637    -2.2080     0.1520 N.ar    
  29 C29            8.5646    -1.4760     0.0495 C.ar    
  30 C30            8.4950    -0.0873    -0.0490 C.ar    
  31 C31            7.2714     0.5256    -0.0443 C.ar    
  32 N32            9.8007    -2.0998     0.0405 N.3     
  33 C33           10.5387    -1.7957    -1.2039 C.3     
  34 C34            9.6552    -3.5626     0.1544 C.3     
  35 C35           10.3592    -4.1887    -1.0678 C.3     
  36 C36           11.3515    -3.0794    -1.5057 C.3     
  37 H37           -0.9340     1.8589    -0.1799 H       
  38 H38            0.6078    -1.6581    -1.5727 H       
  39 H39            0.3045    -3.3486    -1.0959 H       
  40 H40            1.3690    -1.7529     0.1619 H       
  41 H41            3.7795    -1.3893     0.3336 H       
  42 H42           -1.0135    -1.8376    -3.3991 H       
  43 H43            0.1565    -3.1728    -3.5359 H       
  44 H44           -1.4426    -4.6774    -2.3645 H       
  45 H45           -3.2869    -2.2490    -2.5068 H       
  46 H46           -3.7719    -3.8837    -1.9941 H       
  47 H47           -2.2048    -3.8070    -0.1081 H       
  48 H48           -3.2414    -2.3579    -0.0550 H       
  49 H49           -1.8359    -6.1803    -4.0581 H       
  50 H50           -2.6261    -6.7283    -6.3218 H       
  51 H51           -3.6182    -2.6028    -6.9523 H       
  52 H52           -2.8279    -2.0781    -4.6831 H       
  53 H53            5.3911    -2.2837     0.2498 H       
  54 H54            9.3981     0.4992    -0.1321 H       
  55 H55            7.1916     1.6000    -0.1199 H       
  56 H56            9.8428    -1.5874    -2.0165 H       
  57 H57           11.2087    -0.9496    -1.0506 H       
  58 H58           10.1267    -3.9118     1.0731 H       
  59 H59            8.5989    -3.8315     0.1519 H       
  60 H60           10.8948    -5.0940    -0.7821 H       
  61 H61            9.6412    -4.3984    -1.8606 H       
  62 H62           11.5790    -3.1566    -2.5689 H       
  63 H63           12.2632    -3.1135    -0.9093 H       
@<TRIPOS>BOND
   1    1    2 ar
   2    1   10 ar
   3    1   37 1
   4    2    3 1
   5    2    7 ar
   6    3    4 am
   7    3    5 2
   8    4    6 1
   9    4   16 1
  10    6   13 1
  11    6   38 1
  12    6   39 1
  13    7    8 ar
  14    7   40 1
  15    8    9 ar
  16    8   11 1
  17    9   10 ar
  18   11   12 am
  19   11   41 1
  20   12   25 2
  21   12   26 1
  22   13   14 1
  23   13   42 1
  24   13   43 1
  25   14   15 1
  26   14   17 1
  27   14   44 1
  28   15   16 1
  29   15   45 1
  30   15   46 1
  31   16   47 1
  32   16   48 1
  33   17   18 ar
  34   17   22 ar
  35   18   19 ar
  36   18   49 1
  37   19   20 ar
  38   19   50 1
  39   20   21 ar
  40   20   23 1
  41   21   22 ar
  42   21   51 1
  43   22   52 1
  44   23   24 3
  45   26   27 ar
  46   26   31 ar
  47   27   28 ar
  48   27   53 1
  49   28   29 ar
  50   29   30 ar
  51   29   32 1
  52   30   31 ar
  53   30   54 1
  54   31   55 1
  55   32   34 1
  56   32   33 1
  57   33   36 1
  58   33   56 1
  59   33   57 1
  60   34   35 1
  61   34   58 1
  62   34   59 1
  63   35   36 1
  64   35   60 1
  65   35   61 1
  66   36   62 1
  67   36   63 1

#	End of record

