#	Name: ASD02198082
#	Creating user name:	WinNT
#	Creation time:	15. 06. 2019 20:18

#	Modifying user name:	WinNT
#	Modification time:	15. 06. 2019 20:18

#	Program:	/corina/corina34_cracker 3.40 0067  02.08.2006

@<TRIPOS>MOLECULE
ASD02198082
  53   57    0    0    0
SMALL
NO_CHARGES


@<TRIPOS>ATOM
   1 C1            -0.2056     1.3372     0.4643 C.2     
   2 C2            -0.1545    -0.0292     0.2878 C.2     
   3 C3            -1.1785    -0.7681    -0.3876 C.1     
   4 S4             1.1692     1.8929     1.3057 S.3     
   5 C5             1.8313     0.2709     1.4280 C.2     
   6 C6             0.9840    -0.6264     0.8263 C.2     
   7 C7             3.0532    -0.0610     2.0522 C.2     
   8 C8             3.8754     0.9918     2.6640 C.2     
   9 O9             3.4267    -1.2228     2.0837 O.2     
  10 N10            1.2354    -1.9894     0.7613 N.pl3   
  11 N11           -1.2260     2.1446     0.0164 N.pl3   
  12 N12           -1.9908    -1.3542    -0.9234 N.1     
  13 C13            5.0707     0.7906     3.2931 C.2     
  14 C14            5.6563     1.9258     3.7862 C.2     
  15 C15            4.9514     3.0730     3.5692 C.2     
  16 S16            3.4737     2.7035     2.6907 S.3     
  17 C17            5.3686     4.4221     4.0019 C.ar    
  18 C18            4.5572     5.5220     3.7191 C.ar    
  19 C19            4.9619     6.7792     4.1316 C.ar    
  20 C20            6.1648     6.8978     4.8139 C.ar    
  21 C21            6.9201     5.7656     5.0610 C.ar    
  22 N22            6.5110     4.5790     4.6624 N.ar    
  23 C23           -1.1190     3.5352     0.1299 C.ar    
  24 C24            0.1019     4.1587    -0.0930 C.ar    
  25 C25           -2.2352     4.2933     0.4599 C.ar    
  26 C26           -2.1290     5.6654     0.5713 C.ar    
  27 C27           -0.9077     6.2870     0.3536 C.ar    
  28 C28            0.2065     5.5309     0.0187 C.ar    
  29 O29           -0.8040     7.6382     0.4634 O.3     
  30 C30           -0.8207     8.1800     1.7094 C.ar    
  31 C31           -0.8200     7.3559     2.8258 C.ar    
  32 C32           -0.8327     9.5585     1.8677 C.ar    
  33 C33           -0.8497    10.1068     3.1354 C.ar    
  34 C34           -0.8547     9.2833     4.2462 C.ar    
  35 C35           -0.8370     7.9094     4.0913 C.ar    
  36 H36            2.0447    -2.3526     1.1537 H       
  37 H37            0.6017    -2.5791     0.3235 H       
  38 H38           -2.0193     1.7497    -0.3781 H       
  39 H39            5.5185    -0.1870     3.3941 H       
  40 H40            6.6026     1.9137     4.3067 H       
  41 H41            3.6270     5.3937     3.1855 H       
  42 H42            4.3554     7.6491     3.9269 H       
  43 H43            6.5081     7.8656     5.1486 H       
  44 H44            7.8566     5.8556     5.5914 H       
  45 H45            0.9694     3.5704    -0.3534 H       
  46 H46           -3.1859     3.8096     0.6290 H       
  47 H47           -2.9968     6.2550     0.8275 H       
  48 H48            1.1568     6.0155    -0.1502 H       
  49 H49           -0.8065     6.2828     2.7054 H       
  50 H50           -0.8284    10.2022     1.0005 H       
  51 H51           -0.8587    11.1797     3.2592 H       
  52 H52           -0.8676     9.7140     5.2365 H       
  53 H53           -0.8410     7.2684     4.9605 H       
@<TRIPOS>BOND
   1    1    2 2
   2    1    4 1
   3    1   11 1
   4    2    3 1
   5    2    6 1
   6    3   12 3
   7    4    5 1
   8    5    6 2
   9    5    7 1
  10    6   10 1
  11    7    8 1
  12    7    9 2
  13    8   13 2
  14    8   16 1
  15   10   36 1
  16   10   37 1
  17   11   23 1
  18   11   38 1
  19   13   14 1
  20   13   39 1
  21   14   15 2
  22   14   40 1
  23   15   16 1
  24   15   17 1
  25   17   18 ar
  26   17   22 ar
  27   18   19 ar
  28   18   41 1
  29   19   20 ar
  30   19   42 1
  31   20   21 ar
  32   20   43 1
  33   21   22 ar
  34   21   44 1
  35   23   24 ar
  36   23   25 ar
  37   24   28 ar
  38   24   45 1
  39   25   26 ar
  40   25   46 1
  41   26   27 ar
  42   26   47 1
  43   27   28 ar
  44   27   29 1
  45   28   48 1
  46   29   30 1
  47   30   31 ar
  48   30   32 ar
  49   31   35 ar
  50   31   49 1
  51   32   33 ar
  52   32   50 1
  53   33   34 ar
  54   33   51 1
  55   34   35 ar
  56   34   52 1
  57   35   53 1

#	End of record

