#	Name: ASD02030715
#	Creating user name:	WinNT
#	Creation time:	15. 06. 2019 20:15

#	Modifying user name:	WinNT
#	Modification time:	15. 06. 2019 20:15

#	Program:	/corina/corina34_cracker 3.40 0067  02.08.2006

@<TRIPOS>MOLECULE
ASD02030715
  36   38    0    0    0
SMALL
NO_CHARGES


@<TRIPOS>ATOM
   1 N1             0.6766     1.5121     0.5152 N.2     
   2 N2             0.1095     0.2818     0.1623 N.am    
   3 C3             0.8807    -0.7490    -0.2258 C.2     
   4 N4             2.2201    -0.6306    -0.2876 N.am    
   5 C5             2.8112     0.5363     0.0432 C.2     
   6 C6             1.9729     1.6676     0.4685 C.2     
   7 O7             0.3593    -1.8062    -0.5256 O.2     
   8 O8             4.0215     0.6511    -0.0093 O.2     
   9 O9             2.5379     2.8557     0.8075 O.3     
  10 C10           -1.3449     0.1149     0.2171 C.3     
  11 C11           -1.7431    -0.3757     1.5852 C.ar    
  12 C12           -2.0414     0.5325     2.5843 C.ar    
  13 C13           -2.4061     0.0855     3.8394 C.ar    
  14 C14           -2.4735    -1.2763     4.0970 C.ar    
  15 C15           -2.1741    -2.1856     3.0925 C.ar    
  16 C16           -1.8149    -1.7332     1.8377 C.ar    
  17 O17           -2.8317    -1.7187     5.3308 O.3     
  18 C18           -4.1543    -1.9065     5.5824 C.ar    
  19 C19           -4.5782    -2.2467     6.8614 C.ar    
  20 C20           -5.9246    -2.4365     7.1137 C.ar    
  21 C21           -6.8475    -2.2882     6.0944 C.ar    
  22 C22           -6.4273    -1.9498     4.8218 C.ar    
  23 C23           -5.0835    -1.7532     4.5649 C.ar    
  24 F24           -3.6764    -2.3924     7.8567 F       
  25 H25            2.7608    -1.3848    -0.5698 H       
  26 H26            1.9005     3.5330     1.0723 H       
  27 H27           -1.8282     1.0718     0.0194 H       
  28 H28           -1.6559    -0.6112    -0.5340 H       
  29 H29           -1.9888     1.5924     2.3833 H       
  30 H30           -2.6383     0.7953     4.6196 H       
  31 H31           -2.2255    -3.2461     3.2905 H       
  32 H32           -1.5857    -2.4405     1.0543 H       
  33 H33           -6.2555    -2.7010     8.1072 H       
  34 H34           -7.8985    -2.4374     6.2930 H       
  35 H35           -7.1504    -1.8350     4.0279 H       
  36 H36           -4.7570    -1.4848     3.5710 H       
@<TRIPOS>BOND
   1    1    2 1
   2    1    6 2
   3    2    3 am
   4    2   10 1
   5    3    4 am
   6    3    7 2
   7    4    5 am
   8    4   25 1
   9    5    6 1
  10    5    8 2
  11    6    9 1
  12    9   26 1
  13   10   11 1
  14   10   27 1
  15   10   28 1
  16   11   12 ar
  17   11   16 ar
  18   12   13 ar
  19   12   29 1
  20   13   14 ar
  21   13   30 1
  22   14   15 ar
  23   14   17 1
  24   15   16 ar
  25   15   31 1
  26   16   32 1
  27   17   18 1
  28   18   19 ar
  29   18   23 ar
  30   19   20 ar
  31   19   24 1
  32   20   21 ar
  33   20   33 1
  34   21   22 ar
  35   21   34 1
  36   22   23 ar
  37   22   35 1
  38   23   36 1

#	End of record

