#	Name: ASD03092159
#	Creating user name:	WinNT
#	Creation time:	15. 06. 2019 20:32

#	Modifying user name:	WinNT
#	Modification time:	15. 06. 2019 20:32

#	Program:	/corina/corina34_cracker 3.40 0067  02.08.2006

@<TRIPOS>MOLECULE
ASD03092159
  50   52    0    0    0
SMALL
NO_CHARGES


@<TRIPOS>ATOM
   1 N1            -0.3249     1.4441    -0.3247 N.pl3   
   2 C2            -0.3626     0.1566     0.1223 C.2     
   3 C3            -1.6660    -0.1418     0.4009 C.2     
   4 C4            -2.4354     0.9930     0.1154 C.2     
   5 N5            -1.6342     1.9415    -0.3118 N.2     
   6 N6            -3.8235     1.1000     0.2658 N.pl3   
   7 C7            -4.4556     2.3287     0.0606 C.ar    
   8 C8            -5.7862     2.3687    -0.3359 C.ar    
   9 C9            -6.4101     3.5866    -0.5386 C.ar    
  10 C10           -5.7090     4.7653    -0.3469 C.ar    
  11 C11           -3.7561     3.5124     0.2583 C.ar    
  12 C12            0.7956    -0.7506     0.2770 C.ar    
  13 C13            0.8730     2.1788    -0.7387 C.3     
  14 C14            1.9820    -0.5292    -0.4311 C.ar    
  15 C15            3.0373    -1.4003    -0.2567 C.ar    
  16 N16            2.9381    -2.4293     0.5631 N.ar    
  17 C17            1.8380    -2.6741     1.2495 C.ar    
  18 C18            0.7371    -1.8508     1.1403 C.ar    
  19 C19           -4.3822     4.7279     0.0480 C.ar    
  20 F20           -7.7043     3.6261    -0.9243 F       
  21 C21            1.0209     2.0976    -2.2594 C.3     
  22 C22            1.7862    -3.8661     2.1702 C.3     
  23 O23            0.5050    -3.9260     2.8002 O.3     
  24 O24           -0.1039     2.7220    -2.8814 O.3     
  25 C25            0.3501    -5.0262     3.6989 C.3     
  26 C26            2.3031     2.8151    -2.6861 C.3     
  27 C27            2.5162     2.6277    -4.1895 C.3     
  28 F28           -3.7004     5.8794     0.2334 F       
  29 H29           -2.0371    -1.0848     0.7743 H       
  30 H30           -4.3460     0.3210     0.5126 H       
  31 H31           -6.3332     1.4497    -0.4863 H       
  32 H32           -6.1976     5.7152    -0.5060 H       
  33 H33           -2.7228     3.4837     0.5713 H       
  34 H34            0.7813     3.2225    -0.4378 H       
  35 H35            1.7507     1.7398    -0.2643 H       
  36 H36            2.0700     0.3106    -1.1044 H       
  37 H37            3.9572    -1.2379    -0.7988 H       
  38 H38           -0.1598    -2.0570     1.7054 H       
  39 H39            1.0709     1.0523    -2.5642 H       
  40 H40            1.9512    -4.7770     1.5949 H       
  41 H41            2.5611    -3.7715     2.9310 H       
  42 H42           -0.2106     3.6559    -2.6546 H       
  43 H43            1.0952    -4.9557     4.4914 H       
  44 H44           -0.6483    -5.0009     4.1356 H       
  45 H45            0.4853    -5.9612     3.1553 H       
  46 H46            2.2166     3.8782    -2.4612 H       
  47 H47            3.1512     2.3969    -2.1440 H       
  48 H48            2.6027     1.5646    -4.4145 H       
  49 H49            1.6681     3.0459    -4.7317 H       
  50 H50            3.4297     3.1388    -4.4936 H       
@<TRIPOS>BOND
   1    1    2 1
   2    1   13 1
   3    1    5 1
   4    2    3 2
   5    2   12 1
   6    3    4 1
   7    3   29 1
   8    4    5 2
   9    4    6 1
  10    6    7 1
  11    6   30 1
  12    7    8 ar
  13    7   11 ar
  14    8    9 ar
  15    8   31 1
  16    9   10 ar
  17    9   20 1
  18   10   19 ar
  19   10   32 1
  20   11   19 ar
  21   11   33 1
  22   12   14 ar
  23   12   18 ar
  24   13   21 1
  25   13   34 1
  26   13   35 1
  27   14   15 ar
  28   14   36 1
  29   15   16 ar
  30   15   37 1
  31   16   17 ar
  32   17   18 ar
  33   17   22 1
  34   18   38 1
  35   19   28 1
  36   21   24 1
  37   21   26 1
  38   21   39 1
  39   22   23 1
  40   22   40 1
  41   22   41 1
  42   23   25 1
  43   24   42 1
  44   25   43 1
  45   25   44 1
  46   25   45 1
  47   26   27 1
  48   26   46 1
  49   26   47 1
  50   27   48 1
  51   27   49 1
  52   27   50 1

#	End of record

