#	Name: ASD03091073
#	Creating user name:	WinNT
#	Creation time:	15. 06. 2019 20:30

#	Modifying user name:	WinNT
#	Modification time:	15. 06. 2019 20:30

#	Program:	/corina/corina34_cracker 3.40 0067  02.08.2006

@<TRIPOS>MOLECULE
ASD03091073
  30   31    0    0    0
SMALL
NO_CHARGES


@<TRIPOS>ATOM
   1 C1             1.1372    -0.5471     0.5985 C.ar    
   2 C2             0.0024    -0.0046     0.0091 C.ar    
   3 C3             0.0632     1.2510    -0.5818 C.ar    
   4 C4             1.2509     1.9558    -0.5815 C.ar    
   5 C5             2.3788     1.4128     0.0062 C.ar    
   6 C6             2.3217     0.1630     0.5954 C.ar    
   7 N7            -1.1982    -0.7211     0.0101 N.am    
   8 C8             3.6731     2.1846     0.0043 C.3     
   9 C9            -1.1815    -2.0643    -0.0990 C.2     
  10 C10           -2.3857    -2.7985     0.0152 C.2     
  11 O11           -0.1299    -2.6462    -0.2959 O.2     
  12 C12           -2.3689    -4.1504    -0.0946 C.2     
  13 H13           -3.3183    -2.2824     0.1898 H       
  14 C14           -3.5740    -4.8850     0.0197 C.2     
  15 H15           -1.4364    -4.6664    -0.2692 H       
  16 C16           -3.7022    -6.2556    -0.0708 C.2     
  17 C17           -5.0650    -6.5414     0.1023 C.2     
  18 C18           -5.7002    -5.3629     0.2872 C.2     
  19 O19           -4.8012    -4.3699     0.2424 O.3     
  20 H20            1.0921    -1.5212     1.0627 H       
  21 H21           -0.8172     1.6754    -1.0413 H       
  22 H22            1.2989     2.9320    -1.0411 H       
  23 H23            3.2043    -0.2581     1.0535 H       
  24 H24           -2.0432    -0.2514     0.0893 H       
  25 H25            3.7277     2.8048     0.8990 H       
  26 H26            4.5115     1.4881    -0.0067 H       
  27 H27            3.7164     2.8192    -0.8809 H       
  28 H28           -2.9093    -6.9687    -0.2420 H       
  29 H29           -5.5212    -7.5202     0.0897 H       
  30 H30           -6.7611    -5.2411     0.4487 H       
@<TRIPOS>BOND
   1    1    2 ar
   2    1    6 ar
   3    1   20 1
   4    2    3 ar
   5    2    7 1
   6    3    4 ar
   7    3   21 1
   8    4    5 ar
   9    4   22 1
  10    5    6 ar
  11    5    8 1
  12    6   23 1
  13    7    9 am
  14    7   24 1
  15    8   25 1
  16    8   26 1
  17    8   27 1
  18    9   10 1
  19    9   11 2
  20   10   12 2
  21   10   13 1
  22   12   14 1
  23   12   15 1
  24   14   16 2
  25   14   19 1
  26   16   17 1
  27   16   28 1
  28   17   18 2
  29   17   29 1
  30   18   19 1
  31   18   30 1

#	End of record

