#	Name: ASD03490010
#	Creating user name:	WinNT
#	Creation time:	15. 06. 2019 20:42

#	Modifying user name:	WinNT
#	Modification time:	15. 06. 2019 20:42

#	Program:	/corina/corina34_cracker 3.40 0067  02.08.2006

@<TRIPOS>MOLECULE
ASD03490010
  66   69    0    0    0
SMALL
NO_CHARGES


@<TRIPOS>ATOM
   1 C1            -0.0142     1.3511    -0.0173 C.2     
   2 C2             0.0066    -0.0097    -0.0732 C.2     
   3 C3            -1.3162    -0.4587    -0.0719 C.2     
   4 N4            -2.1071     0.5823    -0.0176 N.2     
   5 N5            -1.3159     1.7375     0.0230 N.pl3   
   6 N6             1.0954     2.1917     0.0013 N.am    
   7 C7             2.3372     1.6694    -0.0382 C.2     
   8 C8             3.5246     2.5689    -0.0183 C.2     
   9 C9             4.8710     2.0017     0.0758 C.ar    
  10 C10            6.0516     2.8614    -0.0389 C.ar    
  11 C11            7.3362     2.2774     0.0571 C.ar    
  12 C12            7.4520     0.8846     0.2599 C.ar    
  13 C13            6.3220     0.0948     0.3644 C.ar    
  14 C14            5.0527     0.6317     0.2822 C.ar    
  15 C15            5.9322     4.2396    -0.2407 C.ar    
  16 C16            7.0566     5.0068    -0.3428 C.ar    
  17 C17            8.3215     4.4350    -0.2492 C.ar    
  18 C18            8.4717     3.0945    -0.0517 C.ar    
  19 O19            8.6786     0.3184     0.3523 O.3     
  20 C20            8.7270    -1.0949     0.5575 C.3     
  21 C21           10.1859    -1.5492     0.6356 C.3     
  22 N22           10.8187    -0.9620     1.8242 N.3     
  23 C23           12.1409    -1.5576     2.0658 C.3     
  24 C24           12.7881    -0.8768     3.2747 C.3     
  25 O25           11.9227    -1.0027     4.4063 O.3     
  26 C26           10.6265    -0.4327     4.2060 C.3     
  27 C27            9.9573    -1.1090     3.0065 C.3     
  28 C28           -1.7578    -1.8986    -0.1247 C.3     
  29 C29           -1.5295    -2.5524     1.2397 C.3     
  30 C30           -3.2448    -1.9634    -0.4788 C.3     
  31 C31           -0.9473    -2.6420    -1.1884 C.3     
  32 O32            2.4882     0.4656    -0.0900 O.2     
  33 O33            3.3755     3.7737    -0.0802 O.2     
  34 C34           -1.8052     3.1169     0.0887 C.3     
  35 H35            0.8890    -0.6312    -0.1120 H       
  36 H36            0.9748     3.1532     0.0427 H       
  37 H37            6.4350    -0.9681     0.5194 H       
  38 H38            4.1919    -0.0149     0.3682 H       
  39 H39            4.9557     4.6948    -0.3157 H       
  40 H40            6.9631     6.0714    -0.4986 H       
  41 H41            9.1967     5.0621    -0.3337 H       
  42 H42            9.4595     2.6636     0.0194 H       
  43 H43            8.2184    -1.3445     1.4887 H       
  44 H44            8.2332    -1.5998    -0.2728 H       
  45 H45           10.2248    -2.6364     0.7030 H       
  46 H46           10.7169    -1.2214    -0.2580 H       
  47 H47           12.0291    -2.6234     2.2648 H       
  48 H48           12.7703    -1.4148     1.1874 H       
  49 H49           13.7438    -1.3537     3.4925 H       
  50 H50           12.9490     0.1786     3.0551 H       
  51 H51           10.0187    -0.5884     5.0974 H       
  52 H52           10.7245     0.6357     4.0135 H       
  53 H53            8.9928    -0.6387     2.8149 H       
  54 H54            9.8106    -2.1676     3.2206 H       
  55 H55           -2.1068    -2.0228     1.9975 H       
  56 H56           -1.8488    -3.5938     1.2015 H       
  57 H57           -0.4701    -2.5062     1.4920 H       
  58 H58           -3.4075    -1.4977    -1.4507 H       
  59 H59           -3.5642    -3.0049    -0.5169 H       
  60 H60           -3.8222    -1.4339     0.2791 H       
  61 H61            0.1121    -2.5958    -0.9361 H       
  62 H62           -1.2667    -3.6834    -1.2265 H       
  63 H63           -1.1100    -2.1762    -2.1604 H       
  64 H64           -1.9146     3.4142     1.1317 H       
  65 H65           -1.0937     3.7787    -0.4051 H       
  66 H66           -2.7714     3.1839    -0.4114 H       
@<TRIPOS>BOND
   1    1    2 2
   2    1    6 1
   3    1    5 1
   4    2    3 1
   5    2   35 1
   6    3    4 2
   7    3   28 1
   8    4    5 1
   9    5   34 1
  10    6    7 am
  11    6   36 1
  12    7    8 1
  13    7   32 2
  14    8    9 1
  15    8   33 2
  16    9   10 ar
  17    9   14 ar
  18   10   11 ar
  19   10   15 ar
  20   11   12 ar
  21   11   18 ar
  22   12   13 ar
  23   12   19 1
  24   13   14 ar
  25   13   37 1
  26   14   38 1
  27   15   16 ar
  28   15   39 1
  29   16   17 ar
  30   16   40 1
  31   17   18 ar
  32   17   41 1
  33   18   42 1
  34   19   20 1
  35   20   21 1
  36   20   43 1
  37   20   44 1
  38   21   22 1
  39   21   45 1
  40   21   46 1
  41   22   23 1
  42   22   27 1
  43   23   24 1
  44   23   47 1
  45   23   48 1
  46   24   25 1
  47   24   49 1
  48   24   50 1
  49   25   26 1
  50   26   27 1
  51   26   51 1
  52   26   52 1
  53   27   53 1
  54   27   54 1
  55   28   29 1
  56   28   30 1
  57   28   31 1
  58   29   55 1
  59   29   56 1
  60   29   57 1
  61   30   58 1
  62   30   59 1
  63   30   60 1
  64   31   61 1
  65   31   62 1
  66   31   63 1
  67   34   64 1
  68   34   65 1
  69   34   66 1

#	End of record

