#	Name: ASD04640027
#	Creating user name:	WinNT
#	Creation time:	15. 06. 2019 20:52

#	Modifying user name:	WinNT
#	Modification time:	15. 06. 2019 20:52

#	Program:	/corina/corina34_cracker 3.40 0067  02.08.2006

@<TRIPOS>MOLECULE
ASD04640027
  53   57    0    0    0
SMALL
NO_CHARGES


@<TRIPOS>ATOM
   1 C1            -0.0184     1.5023     0.0103 C.ar    
   2 C2             0.0021    -0.0041     0.0020 C.3     
   3 N3             1.3153    -0.4974    -0.4245 N.3     
   4 C4             2.3782     0.1208     0.3840 C.3     
   5 C5             2.5018     1.5903    -0.0193 C.3     
   6 C6             1.3783    -1.9629    -0.3449 C.3     
   7 C7             0.4125    -2.5710    -1.3639 C.3     
   8 C8             0.4159    -4.0931    -1.5195 C.3     
   9 C9            -0.7560    -3.3978    -0.8237 C.3     
  10 C10            0.1705    -4.6607    -2.9190 C.3     
  11 N11            0.3289    -6.1168    -2.8901 N.am    
  12 C12            0.1585    -6.8357    -4.0173 C.2     
  13 C13            0.3175    -8.2974    -3.9883 C.2     
  14 O14           -0.1267    -6.2754    -5.0588 O.2     
  15 C15            1.1444     2.2464     0.0032 C.ar    
  16 C16            1.0831     3.6330     0.0157 C.ar    
  17 C17           -0.1328     4.2804     0.0331 C.ar    
  18 C18           -1.3129     3.5344     0.0380 C.ar    
  19 C19           -1.2459     2.1416     0.0313 C.ar    
  20 C20           -2.5834     4.1949     0.0551 C.1     
  21 N21           -3.5912     4.7189     0.0686 N.1     
  22 C22            0.1777    -9.1262    -5.0558 C.2     
  23 N23            0.6386    -9.0460    -2.8726 N.pl3   
  24 C24            0.4110   -10.4490    -4.6079 C.ar    
  25 C25            0.4059   -11.6960    -5.2465 C.ar    
  26 C26            0.6989   -10.3718    -3.2313 C.ar    
  27 C27            0.9748   -11.5387    -2.5236 C.ar    
  28 C28            0.9602   -12.7525    -3.1730 C.ar    
  29 C29            0.6758   -12.8260    -4.5310 C.ar    
  30 H30           -0.2120    -0.3723     1.0054 H       
  31 H31           -0.7604    -0.3704    -0.6853 H       
  32 H32            2.1215     0.0515     1.4411 H       
  33 H33            3.3230    -0.3903     0.1993 H       
  34 H34            3.1630     2.1029     0.6794 H       
  35 H35            2.9188     1.6559    -1.0242 H       
  36 H36            2.3932    -2.2953    -0.5630 H       
  37 H37            1.0982    -2.2847     0.6581 H       
  38 H38            0.2358    -1.9740    -2.2586 H       
  39 H39            1.1065    -4.6612    -0.8963 H       
  40 H40           -0.8367    -3.5086     0.2577 H       
  41 H41           -1.7018    -3.3448    -1.3629 H       
  42 H42           -0.8409    -4.4115    -3.2399 H       
  43 H43            0.8893    -4.2308    -3.6166 H       
  44 H44            0.5563    -6.5635    -2.0597 H       
  45 H45            1.9965     4.2094     0.0120 H       
  46 H46           -0.1729     5.3596     0.0433 H       
  47 H47           -2.1555     1.5594     0.0348 H       
  48 H48           -0.0673    -8.8293    -6.0648 H       
  49 H49            0.7961    -8.6941    -1.9825 H       
  50 H50            0.1886   -11.7627    -6.3023 H       
  51 H51            1.2000   -11.4917    -1.4684 H       
  52 H52            1.1749   -13.6563    -2.6221 H       
  53 H53            0.6710   -13.7861    -5.0255 H       
@<TRIPOS>BOND
   1    1    2 1
   2    1   15 ar
   3    1   19 ar
   4    2    3 1
   5    2   30 1
   6    2   31 1
   7    3    4 1
   8    3    6 1
   9    4    5 1
  10    4   32 1
  11    4   33 1
  12    5   15 1
  13    5   34 1
  14    5   35 1
  15    6    7 1
  16    6   36 1
  17    6   37 1
  18    7    8 1
  19    7    9 1
  20    7   38 1
  21    8   10 1
  22    8    9 1
  23    8   39 1
  24    9   40 1
  25    9   41 1
  26   10   11 1
  27   10   42 1
  28   10   43 1
  29   11   12 am
  30   11   44 1
  31   12   13 1
  32   12   14 2
  33   13   23 1
  34   13   22 2
  35   15   16 ar
  36   16   17 ar
  37   16   45 1
  38   17   18 ar
  39   17   46 1
  40   18   19 ar
  41   18   20 1
  42   19   47 1
  43   20   21 3
  44   22   24 1
  45   22   48 1
  46   23   26 1
  47   23   49 1
  48   24   26 ar
  49   24   25 ar
  50   25   29 ar
  51   25   50 1
  52   26   27 ar
  53   27   28 ar
  54   27   51 1
  55   28   29 ar
  56   28   52 1
  57   29   53 1

#	End of record

