#	Name: ASD06770001
#	Creating user name:	WinNT
#	Creation time:	15. 06. 2019 21:08

#	Modifying user name:	WinNT
#	Modification time:	15. 06. 2019 21:08

#	Program:	/corina/corina34_cracker 3.40 0067  02.08.2006

@<TRIPOS>MOLECULE
ASD06770001
  49   52    0    0    0
SMALL
NO_CHARGES


@<TRIPOS>ATOM
   1 N1            -0.1641     1.2231     0.5277 N.2     
   2 N2            -0.1196    -0.0622     0.4244 N.2     
   3 C3             1.1277    -0.4667     0.4078 C.2     
   4 N4             1.8915     0.6360     0.5089 N.pl3   
   5 C5             3.2775     0.8273     0.5505 C.ar    
   6 C6             3.7733     1.7128     1.5074 C.ar    
   7 C7             2.8243     2.2923     2.5137 C.3     
   8 O8             2.0262     3.3738     2.0064 O.3     
   9 C9             1.5090     3.1219     0.6919 C.3     
  10 C10            1.0421     1.6998     0.5801 C.2     
  11 C11            5.1193     2.0068     1.5327 C.ar    
  12 C12            5.9792     1.3817     0.6449 C.ar    
  13 C13            5.4932     0.4637    -0.2692 C.ar    
  14 C14            4.1388     0.1863    -0.3187 C.ar    
  15 C15            1.6112    -1.8897     0.2971 C.3     
  16 C16            1.0747    -2.7038     1.4762 C.3     
  17 C17            1.5656    -4.1486     1.3638 C.3     
  18 C18            1.0634    -4.7574     0.0530 C.3     
  19 C19            1.5999    -3.9432    -1.1260 C.3     
  20 C20            1.1090    -2.4985    -1.0136 C.3     
  21 O21            1.5219    -6.1067    -0.0519 O.3     
  22 C22            0.5587    -7.0066    -0.6038 C.3     
  23 C23            0.7078    -7.0424    -2.1261 C.3     
  24 C24            0.7868    -8.4089    -0.0360 C.3     
  25 Cl25           7.6749     1.7522     0.6789 Cl      
  26 H26            2.1586     1.5014     2.8593 H       
  27 H27            3.3998     2.6548     3.3655 H       
  28 H28            0.6720     3.7928     0.4988 H       
  29 H29            2.2915     3.3038    -0.0448 H       
  30 H30            5.5031     2.7237     2.2434 H       
  31 H31            6.1716    -0.0365    -0.9445 H       
  32 H32            3.7568    -0.5280    -1.0330 H       
  33 H33            2.7010    -1.9052     0.3109 H       
  34 H34            1.4325    -2.2701     2.4100 H       
  35 H35           -0.0151    -2.6883     1.4624 H       
  36 H36            2.6554    -4.1641     1.3775 H       
  37 H37            1.1833    -4.7286     2.2038 H       
  38 H38           -0.0264    -4.7418     0.0393 H       
  39 H39            2.6897    -3.9587    -1.1123 H       
  40 H40            1.2421    -4.3769    -2.0598 H       
  41 H41            0.0192    -2.4829    -1.0274 H       
  42 H42            1.4912    -1.9185    -1.8536 H       
  43 H43           -0.4446    -6.6685    -0.3448 H       
  44 H44            0.0395    -7.7981    -2.5390 H       
  45 H45            0.4521    -6.0666    -2.5393 H       
  46 H46            1.7378    -7.2879    -2.3847 H       
  47 H47            0.6807    -8.3834     1.0485 H       
  48 H48            0.0522    -9.0953    -0.4569 H       
  49 H49            1.7902    -8.7470    -0.2950 H       
@<TRIPOS>BOND
   1    1    2 1
   2    1   10 2
   3    2    3 2
   4    3    4 1
   5    3   15 1
   6    4    5 1
   7    4   10 1
   8    5    6 ar
   9    5   14 ar
  10    6    7 1
  11    6   11 ar
  12    7    8 1
  13    7   26 1
  14    7   27 1
  15    8    9 1
  16    9   10 1
  17    9   28 1
  18    9   29 1
  19   11   12 ar
  20   11   30 1
  21   12   13 ar
  22   12   25 1
  23   13   14 ar
  24   13   31 1
  25   14   32 1
  26   15   16 1
  27   15   20 1
  28   15   33 1
  29   16   17 1
  30   16   34 1
  31   16   35 1
  32   17   18 1
  33   17   36 1
  34   17   37 1
  35   18   19 1
  36   18   21 1
  37   18   38 1
  38   19   20 1
  39   19   39 1
  40   19   40 1
  41   20   41 1
  42   20   42 1
  43   21   22 1
  44   22   23 1
  45   22   24 1
  46   22   43 1
  47   23   44 1
  48   23   45 1
  49   23   46 1
  50   24   47 1
  51   24   48 1
  52   24   49 1

#	End of record

