#	Name: ASD01883823
#	Creating user name:	WinNT
#	Creation time:	15. 06. 2019 19:47

#	Modifying user name:	WinNT
#	Modification time:	15. 06. 2019 19:47

#	Program:	/corina/corina34_cracker 3.40 0067  02.08.2006

@<TRIPOS>MOLECULE
ASD01883823
  61   64    0    0    0
SMALL
NO_CHARGES


@<TRIPOS>ATOM
   1 C1            -0.0168     1.3899     0.0097 C.ar    
   2 C2             0.0021    -0.0041     0.0020 C.ar    
   3 C3            -1.1845    -0.7109     0.0100 C.ar    
   4 C4            -2.4026    -0.0252     0.0258 C.ar    
   5 C5            -2.4141     1.3724     0.0334 C.ar    
   6 C6            -1.2267     2.0710     0.0307 C.ar    
   7 O7             1.1507     2.0833     0.0023 O.3     
   8 C8             1.0585     3.5093     0.0108 C.3     
   9 C9             2.4650     4.1114     0.0006 C.3     
  10 C10            2.3662     5.6381     0.0097 C.3     
  11 C11            3.7727     6.2402    -0.0005 C.3     
  12 O12            3.6805     7.6662     0.0081 O.3     
  13 C13            4.8474     8.3592     0.0007 C.ar    
  14 C14            6.0590     7.6784    -0.0146 C.ar    
  15 C15            7.2467     8.3754    -0.0217 C.ar    
  16 C16            7.2345     9.7729    -0.0140 C.ar    
  17 C17            6.0106    10.4502     0.0008 C.ar    
  18 C18            4.8295     9.7505     0.0026 C.ar    
  19 C19            8.3158    10.7735    -0.0185 C.2     
  20 N20            7.8031    12.0158    -0.0072 N.am    
  21 C21            6.3388    11.9225     0.0057 C.3     
  22 O22            9.5032    10.5124    -0.0304 O.2     
  23 C23            8.5787    13.2587    -0.0072 C.3     
  24 C24            9.4824    13.3161     1.2369 C.3     
  25 C25           10.9353    13.3883     0.7233 C.3     
  26 C26           10.8045    13.9722    -0.7053 C.3     
  27 C27            9.5139    13.2980    -1.2334 C.3     
  28 O28            1.1889    -0.6680    -0.0138 O.3     
  29 C29            1.1335    -2.0959    -0.0209 C.3     
  30 C30           -3.6726    -0.7747     0.0339 C.2     
  31 O31           -3.6610    -1.9897     0.0269 O.2     
  32 O32           -4.8459    -0.1122     0.0491 O.3     
  33 H33           -1.1714    -1.7908     0.0037 H       
  34 H34           -3.3538     1.9046     0.0455 H       
  35 H35           -1.2370     3.1509     0.0366 H       
  36 H36            0.5138     3.8434    -0.8722 H       
  37 H37            0.5308     3.8339     0.9076 H       
  38 H38            3.0097     3.7772     0.8836 H       
  39 H39            2.9927     3.7868    -0.8962 H       
  40 H40            1.8215     5.9723    -0.8733 H       
  41 H41            1.8385     5.9627     0.9066 H       
  42 H42            4.3174     5.9061     0.8826 H       
  43 H43            4.3004     5.9156    -0.8973 H       
  44 H44            6.0690     6.5985    -0.0205 H       
  45 H45            8.1862     7.8428    -0.0328 H       
  46 H46            3.8879    10.2792     0.0141 H       
  47 H47            5.9250    12.4016    -0.8816 H       
  48 H48            5.9414    12.3920     0.9055 H       
  49 H49            7.9074    14.1174    -0.0210 H       
  50 H50            9.2503    14.2030     1.8264 H       
  51 H51            9.3439    12.4192     1.8407 H       
  52 H52           11.5301    14.0500     1.3529 H       
  53 H53           11.3778    12.3927     0.6894 H       
  54 H54           10.6881    15.0554    -0.6707 H       
  55 H55           11.6633    13.6943    -1.3164 H       
  56 H56            9.7269    12.2879    -1.5833 H       
  57 H57            9.0714    13.8939    -2.0317 H       
  58 H58            0.6152    -2.4438     0.8727 H       
  59 H59            0.5968    -2.4343    -0.9072 H       
  60 H60            2.1462    -2.4987    -0.0335 H       
  61 H61           -5.6518    -0.6466     0.0539 H       
@<TRIPOS>BOND
   1    1    2 ar
   2    1    7 1
   3    1    6 ar
   4    2    3 ar
   5    2   28 1
   6    3    4 ar
   7    3   33 1
   8    4    5 ar
   9    4   30 1
  10    5    6 ar
  11    5   34 1
  12    6   35 1
  13    7    8 1
  14    8    9 1
  15    8   36 1
  16    8   37 1
  17    9   10 1
  18    9   38 1
  19    9   39 1
  20   10   11 1
  21   10   40 1
  22   10   41 1
  23   11   12 1
  24   11   42 1
  25   11   43 1
  26   12   13 1
  27   13   14 ar
  28   13   18 ar
  29   14   15 ar
  30   14   44 1
  31   15   16 ar
  32   15   45 1
  33   16   17 ar
  34   16   19 1
  35   17   18 ar
  36   17   21 1
  37   18   46 1
  38   19   20 am
  39   19   22 2
  40   20   21 1
  41   20   23 1
  42   21   47 1
  43   21   48 1
  44   23   24 1
  45   23   27 1
  46   23   49 1
  47   24   25 1
  48   24   50 1
  49   24   51 1
  50   25   26 1
  51   25   52 1
  52   25   53 1
  53   26   27 1
  54   26   54 1
  55   26   55 1
  56   27   56 1
  57   27   57 1
  58   28   29 1
  59   29   58 1
  60   29   59 1
  61   29   60 1
  62   30   31 2
  63   30   32 1
  64   32   61 1

#	End of record

