#	Name: ASD03331128
#	Creating user name:	WinNT
#	Creation time:	15. 06. 2019 20:38

#	Modifying user name:	WinNT
#	Modification time:	15. 06. 2019 20:38

#	Program:	/corina/corina34_cracker 3.40 0067  02.08.2006

@<TRIPOS>MOLECULE
ASD03331128
  45   46    0    0    0
SMALL
NO_CHARGES


@<TRIPOS>ATOM
   1 N1            -0.2901     0.8693    -0.6917 N.am    
   2 C2            -0.1484    -0.4590    -1.3043 C.3     
   3 C3             0.9578    -0.3942    -2.3647 C.3     
   4 N4             2.1418     0.2415    -1.7700 N.am    
   5 C5             2.0001     1.5699    -1.1574 C.3     
   6 C6             0.8940     1.5050    -0.0970 C.3     
   7 C7            -1.4834     1.4958    -0.6805 C.2     
   8 O8            -2.4543     0.9624    -1.1799 O.2     
   9 O9            -1.5997     2.7126    -0.1161 O.3     
  10 C10            3.3362    -0.3828    -1.7856 C.2     
  11 N11            4.4351     0.2536    -1.3341 N.am    
  12 O12            3.4223    -1.5200    -2.2071 O.2     
  13 C13            5.6525    -0.4308    -1.2439 C.ar    
  14 C14            6.8473     0.2434    -1.4592 C.ar    
  15 C15            8.0471    -0.4347    -1.3690 C.ar    
  16 C16            8.0594    -1.7836    -1.0646 C.ar    
  17 C17            6.8714    -2.4578    -0.8501 C.ar    
  18 C18            5.6685    -1.7841    -0.9332 C.ar    
  19 C19           -2.9147     3.3276    -0.1405 C.3     
  20 C20           -3.9099     2.4333     0.6017 C.3     
  21 C21           -2.8508     4.6954     0.5420 C.3     
  22 C22           -3.3693     3.5021    -1.5910 C.3     
  23 H23            0.1203    -1.1878    -0.5395 H       
  24 H24           -1.0888    -0.7476    -1.7737 H       
  25 H25            1.2098    -1.4027    -2.6925 H       
  26 H26            0.6149     0.1947    -3.2154 H       
  27 H27            2.9405     1.8584    -0.6879 H       
  28 H28            1.7314     2.2986    -1.9222 H       
  29 H29            0.6419     2.5135     0.2309 H       
  30 H30            1.2369     0.9161     0.7538 H       
  31 H31            4.3822     1.1859    -1.0716 H       
  32 H32            6.8383     1.2968    -1.6973 H       
  33 H33            8.9766     0.0889    -1.5367 H       
  34 H34            8.9989    -2.3116    -0.9946 H       
  35 H35            6.8843    -3.5114    -0.6129 H       
  36 H36            4.7412    -2.3102    -0.7608 H       
  37 H37           -3.5860     2.3090     1.6350 H       
  38 H38           -4.8971     2.8950     0.5834 H       
  39 H39           -3.9554     1.4588     0.1155 H       
  40 H40           -2.1418     5.3325     0.0132 H       
  41 H41           -3.8380     5.1571     0.5237 H       
  42 H42           -2.5270     4.5711     1.5753 H       
  43 H43           -3.4148     2.5276    -2.0772 H       
  44 H44           -4.3565     3.9638    -1.6093 H       
  45 H45           -2.6603     4.1392    -2.1198 H       
@<TRIPOS>BOND
   1    1    2 1
   2    1    6 1
   3    1    7 am
   4    2    3 1
   5    2   23 1
   6    2   24 1
   7    3    4 1
   8    3   25 1
   9    3   26 1
  10    4    5 1
  11    4   10 am
  12    5    6 1
  13    5   27 1
  14    5   28 1
  15    6   29 1
  16    6   30 1
  17    7    8 2
  18    7    9 1
  19    9   19 1
  20   10   11 am
  21   10   12 2
  22   11   13 1
  23   11   31 1
  24   13   14 ar
  25   13   18 ar
  26   14   15 ar
  27   14   32 1
  28   15   16 ar
  29   15   33 1
  30   16   17 ar
  31   16   34 1
  32   17   18 ar
  33   17   35 1
  34   18   36 1
  35   19   20 1
  36   19   22 1
  37   19   21 1
  38   20   37 1
  39   20   38 1
  40   20   39 1
  41   21   40 1
  42   21   41 1
  43   21   42 1
  44   22   43 1
  45   22   44 1
  46   22   45 1

#	End of record

