#	Name: ASD03091986
#	Creating user name:	WinNT
#	Creation time:	15. 06. 2019 20:31

#	Modifying user name:	WinNT
#	Modification time:	15. 06. 2019 20:31

#	Program:	/corina/corina34_cracker 3.40 0067  02.08.2006

@<TRIPOS>MOLECULE
ASD03091986
  57   61    0    0    0
SMALL
NO_CHARGES


@<TRIPOS>ATOM
   1 C1            -0.0150     1.3951     0.0120 C.ar    
   2 C2            -1.2495     2.0685     0.0343 C.ar    
   3 C3            -2.4497     1.3140     0.0357 C.ar    
   4 C4            -2.3931    -0.0936     0.0121 C.ar    
   5 C5            -1.1947    -0.7309    -0.0099 C.ar    
   6 C6             0.0034    -0.0000    -0.0093 C.ar    
   7 O7             1.1602     2.0650     0.0162 O.3     
   8 C8             2.2582     1.4564     0.6963 C.3     
   9 N9             2.4079     0.0581     0.2906 N.am    
  10 C10            1.3159    -0.6756    -0.0260 C.2     
  11 C11           -3.6690    -0.8955     0.0118 C.3     
  12 N12           -4.2253    -0.9302    -1.3473 N.3     
  13 O13            1.4126    -1.8530    -0.3151 O.2     
  14 C14            3.7404    -0.5473     0.2271 C.3     
  15 C15            4.5997     0.1759    -0.8305 C.3     
  16 C16            4.4631    -0.3734     1.5744 C.3     
  17 C17            5.7363     0.4495     1.2885 C.3     
  18 C18            5.4077     1.2167    -0.0163 C.3     
  19 O19            4.8157    -1.6507     2.1093 O.3     
  20 C20           -3.6823     1.9866     0.0603 C.ar    
  21 C21           -1.3165     3.4708     0.0547 C.ar    
  22 C22           -3.7095     3.3480     0.0807 C.ar    
  23 C23           -2.5300     4.0886     0.0772 C.ar    
  24 C24           -3.4190    -1.8116    -2.2301 C.3     
  25 C25           -4.3948    -2.1427    -3.3872 C.3     
  26 C26           -5.7543    -2.2804    -2.6642 C.3     
  27 C27           -5.5903    -1.4996    -1.3470 C.3     
  28 O28           -6.7969    -1.7059    -3.4547 O.3     
  29 C29           -7.4362    -2.6321    -4.3354 C.3     
  30 H30           -1.1629    -1.8103    -0.0277 H       
  31 H31            3.1731     1.9991     0.4584 H       
  32 H32            2.0842     1.5015     1.7714 H       
  33 H33           -3.4593    -1.9120     0.3447 H       
  34 H34           -4.3888    -0.4332     0.6873 H       
  35 H35            3.6579    -1.6061    -0.0183 H       
  36 H36            5.2709    -0.5277    -1.3228 H       
  37 H37            3.9641     0.6743    -1.5625 H       
  38 H38            3.8224     0.1615     2.2755 H       
  39 H39            5.9302     1.1475     2.1030 H       
  40 H40            6.5911    -0.2100     1.1384 H       
  41 H41            6.3215     1.4935    -0.5421 H       
  42 H42            4.8008     2.0970     0.1956 H       
  43 H43            5.2749    -1.6081     2.9592 H       
  44 H44           -4.6055     1.4261     0.0626 H       
  45 H45           -0.4095     4.0571     0.0529 H       
  46 H46           -4.6598     3.8609     0.0990 H       
  47 H47           -2.5783     5.1674     0.0934 H       
  48 H48           -2.5428    -1.2827    -2.6052 H       
  49 H49           -3.1253    -2.7193    -1.7029 H       
  50 H50           -4.4240    -1.3290    -4.1119 H       
  51 H51           -4.1176    -3.0802    -3.8692 H       
  52 H52           -5.9687    -3.3290    -2.4582 H       
  53 H53           -5.7115    -2.1731    -0.4986 H       
  54 H54           -6.3270    -0.6979    -1.2963 H       
  55 H55           -6.7000    -3.0451    -5.0250 H       
  56 H56           -7.8813    -3.4390    -3.7532 H       
  57 H57           -8.2148    -2.1188    -4.8996 H       
@<TRIPOS>BOND
   1    1    6 ar
   2    1    7 1
   3    1    2 ar
   4    2    3 ar
   5    2   21 ar
   6    3    4 ar
   7    3   20 ar
   8    4    5 ar
   9    4   11 1
  10    5    6 ar
  11    5   30 1
  12    6   10 1
  13    7    8 1
  14    8    9 1
  15    8   31 1
  16    8   32 1
  17    9   10 am
  18    9   14 1
  19   10   13 2
  20   11   12 1
  21   11   33 1
  22   11   34 1
  23   12   27 1
  24   12   24 1
  25   14   16 1
  26   14   15 1
  27   14   35 1
  28   15   18 1
  29   15   36 1
  30   15   37 1
  31   16   17 1
  32   16   19 1
  33   16   38 1
  34   17   18 1
  35   17   39 1
  36   17   40 1
  37   18   41 1
  38   18   42 1
  39   19   43 1
  40   20   22 ar
  41   20   44 1
  42   21   23 ar
  43   21   45 1
  44   22   23 ar
  45   22   46 1
  46   23   47 1
  47   24   25 1
  48   24   48 1
  49   24   49 1
  50   25   26 1
  51   25   50 1
  52   25   51 1
  53   26   27 1
  54   26   28 1
  55   26   52 1
  56   27   53 1
  57   27   54 1
  58   28   29 1
  59   29   55 1
  60   29   56 1
  61   29   57 1

#	End of record

