#	Name: ASD05720103
#	Creating user name:	WinNT
#	Creation time:	15. 06. 2019 21:01

#	Modifying user name:	WinNT
#	Modification time:	15. 06. 2019 21:01

#	Program:	/corina/corina34_cracker 3.40 0067  02.08.2006

@<TRIPOS>MOLECULE
ASD05720103
  35   38    0    0    0
SMALL
NO_CHARGES


@<TRIPOS>ATOM
   1 O1            -0.0161     1.3334     0.0094 O.3     
   2 C2             0.0021    -0.0041     0.0020 C.2     
   3 N3             1.2348    -0.5293    -0.0126 N.am    
   4 C4             2.2183     0.5645    -0.0161 C.3     
   5 C5             1.3508     1.8379    -0.0010 C.3     
   6 O6            -1.0069    -0.6808     0.0087 O.2     
   7 C7             2.5370     0.1786     2.4417 C.ar    
   8 C8             3.0858     0.5003     1.2145 C.ar    
   9 C9             4.4444     0.7627     1.1300 C.ar    
  10 C10            5.2037     0.6914     2.2882 C.ar    
  11 C11            4.5853     0.3635     3.4796 C.ar    
  12 N12            3.2897     0.1205     3.5227 N.ar    
  13 C13            5.4006     0.2831     4.7444 C.3     
  14 C14            3.0998    -3.5861    -0.0446 C.2     
  15 N15            2.7924    -2.2814    -0.0357 N.2     
  16 C16            1.5350    -1.8858    -0.0220 C.2     
  17 C17            0.4938    -2.8374    -0.0165 C.2     
  18 C18            0.7983    -4.1544    -0.0253 C.2     
  19 N19            2.1111    -4.5364    -0.0395 N.pl3   
  20 N20            2.7293    -5.7921    -0.0510 N.2     
  21 C21            4.0323    -5.6237    -0.0626 C.2     
  22 C22            4.3115    -4.2644    -0.0648 C.2     
  23 Br23           6.0310    -3.4778    -0.0879 Br      
  24 H24            2.8286     0.5277    -0.9184 H       
  25 H25            1.5314     2.4339    -0.8956 H       
  26 H26            1.5485     2.4243     0.8964 H       
  27 H27            1.4786    -0.0229     2.5168 H       
  28 H28            4.9007     1.0163     0.1845 H       
  29 H29            6.2650     0.8893     2.2593 H       
  30 H30            5.4161     1.2591     5.2294 H       
  31 H31            4.9559    -0.4500     5.4174 H       
  32 H32            6.4196    -0.0181     4.5013 H       
  33 H33           -0.5374    -2.5166    -0.0049 H       
  34 H34            0.0136    -4.8964    -0.0208 H       
  35 H35            4.7671    -6.4151    -0.0732 H       
@<TRIPOS>BOND
   1    1    2 1
   2    1    5 1
   3    2    3 am
   4    2    6 2
   5    3    4 1
   6    3   16 1
   7    4    5 1
   8    4    8 1
   9    4   24 1
  10    5   25 1
  11    5   26 1
  12    7    8 ar
  13    7   12 ar
  14    7   27 1
  15    8    9 ar
  16    9   10 ar
  17    9   28 1
  18   10   11 ar
  19   10   29 1
  20   11   12 ar
  21   11   13 1
  22   13   30 1
  23   13   31 1
  24   13   32 1
  25   14   15 1
  26   14   19 1
  27   14   22 2
  28   15   16 2
  29   16   17 1
  30   17   18 2
  31   17   33 1
  32   18   19 1
  33   18   34 1
  34   19   20 1
  35   20   21 2
  36   21   22 1
  37   21   35 1
  38   22   23 1

#	End of record

