#	Name: ASD01917728
#	Creating user name:	WinNT
#	Creation time:	15. 06. 2019 20:09

#	Modifying user name:	WinNT
#	Modification time:	15. 06. 2019 20:09

#	Program:	/corina/corina34_cracker 3.40 0067  02.08.2006

@<TRIPOS>MOLECULE
ASD01917728
  42   45    0    0    0
SMALL
NO_CHARGES


@<TRIPOS>ATOM
   1 C1            -0.0137     1.4926     0.0258 C.3     
   2 C2             0.0214    -0.0177     0.0099 C.2     
   3 C3             2.4659    -0.1849    -0.4921 C.3     
   4 C4             2.3200     1.2812    -0.9138 C.3     
   5 N5             1.3859     1.9570    -0.0004 N.am    
   6 C6            -0.9998    -0.8665     0.2192 C.2     
   7 C7            -0.4982    -2.1792     0.0980 C.2     
   8 N8             0.7890    -2.0991    -0.1740 N.2     
   9 N9             1.1376    -0.7467    -0.2295 N.pl3   
  10 C10            1.7964     2.9700     0.7881 C.2     
  11 O11            2.9743     3.2670     0.8322 O.2     
  12 C12            0.8141     3.7199     1.5996 C.ar    
  13 C13           -0.4727     3.9465     1.1089 C.ar    
  14 C14            1.1680     4.1991     2.8616 C.ar    
  15 C15            0.2475     4.8985     3.6149 C.ar    
  16 C16           -1.0248     5.1258     3.1226 C.ar    
  17 C17           -1.3857     4.6482     1.8726 C.ar    
  18 C18           -1.2814    -3.4299     0.2504 C.ar    
  19 C19           -0.6491    -4.6628     0.1023 C.ar    
  20 C20           -1.3914    -5.8213     0.2470 C.ar    
  21 C21           -2.7463    -5.7088     0.5361 C.ar    
  22 C22           -3.3090    -4.4507     0.6697 C.ar    
  23 N23           -2.5759    -3.3645     0.5317 N.ar    
  24 F24           -3.5066    -6.8157     0.6847 F       
  25 F25           -2.6320     4.8690     1.4002 F       
  26 C26            0.6293     5.4157     4.9780 C.3     
  27 H27           -0.5444     1.8616    -0.8519 H       
  28 H28           -0.5049     1.8436     0.9334 H       
  29 H29            2.9475    -0.7475    -1.2919 H       
  30 H30            3.0717    -0.2450     0.4120 H       
  31 H31            3.2924     1.7715    -0.8685 H       
  32 H32            1.9335     1.3305    -1.9318 H       
  33 H33           -2.0208    -0.5925     0.4405 H       
  34 H34           -0.7540     3.5747     0.1348 H       
  35 H35            2.1609     4.0225     3.2482 H       
  36 H36           -1.7414     5.6735     3.7166 H       
  37 H37            0.4060    -4.7134    -0.1227 H       
  38 H38           -0.9287    -6.7910     0.1376 H       
  39 H39           -4.3614    -4.3586     0.8938 H       
  40 H40            1.0428     6.4197     4.8829 H       
  41 H41           -0.2540     5.4454     5.6159 H       
  42 H42            1.3754     4.7560     5.4210 H       
@<TRIPOS>BOND
   1    1    2 1
   2    1    5 1
   3    1   27 1
   4    1   28 1
   5    2    6 2
   6    2    9 1
   7    3    4 1
   8    3    9 1
   9    3   29 1
  10    3   30 1
  11    4    5 1
  12    4   31 1
  13    4   32 1
  14    5   10 am
  15    6    7 1
  16    6   33 1
  17    7    8 2
  18    7   18 1
  19    8    9 1
  20   10   11 2
  21   10   12 1
  22   12   14 ar
  23   12   13 ar
  24   13   17 ar
  25   13   34 1
  26   14   15 ar
  27   14   35 1
  28   15   16 ar
  29   15   26 1
  30   16   17 ar
  31   16   36 1
  32   17   25 1
  33   18   19 ar
  34   18   23 ar
  35   19   20 ar
  36   19   37 1
  37   20   21 ar
  38   20   38 1
  39   21   22 ar
  40   21   24 1
  41   22   23 ar
  42   22   39 1
  43   26   40 1
  44   26   41 1
  45   26   42 1

#	End of record

