#	Name: ASD01911245
#	Creating user name:	WinNT
#	Creation time:	15. 06. 2019 19:57

#	Modifying user name:	WinNT
#	Modification time:	15. 06. 2019 19:57

#	Program:	/corina/corina34_cracker 3.40 0067  02.08.2006

@<TRIPOS>MOLECULE
ASD01911245
  48   51    0    0    0
SMALL
NO_CHARGES


@<TRIPOS>ATOM
   1 C1            -0.2321     0.9789     0.0366 C.3     
   2 C2             0.2532    -0.4667    -0.1103 C.3     
   3 N3             1.1726    -0.7714     0.9944 N.am    
   4 C4             2.3205     0.1166     1.2235 C.3     
   5 C5             1.8121     1.5556     1.3554 C.3     
   6 C6             0.9774     1.9125     0.1233 C.3     
   7 C7             0.9668    -1.8448     1.7830 C.2     
   8 O8             1.7871    -2.1457     2.6240 O.2     
   9 C9            -0.2828    -2.6712     1.6196 C.3     
  10 C10           -0.3676    -3.8588     2.5930 C.3     
  11 C11           -1.8636    -3.5330     2.7364 C.3     
  12 C12           -1.5060    -2.0889     2.3473 C.3     
  13 C13            3.0270    -0.2879     2.4917 C.2     
  14 N14            4.2313    -0.7944     2.5838 N.2     
  15 C15            4.4399    -0.9975     3.9042 C.2     
  16 N16            3.3607    -0.6062     4.5302 N.2     
  17 O17            2.5445    -0.1917     3.7346 O.3     
  18 C18            5.6646    -1.5598     4.5265 C.ar    
  19 C19            6.7434    -1.9363     3.7294 C.ar    
  20 C20            7.8816    -2.4592     4.3104 C.ar    
  21 C21            7.9543    -2.6110     5.6822 C.ar    
  22 C22            6.8837    -2.2383     6.4835 C.ar    
  23 C23            5.7406    -1.7072     5.9092 C.ar    
  24 O24            6.9592    -2.3897     7.8320 O.3     
  25 C25            8.1699    -2.9386     8.3564 C.3     
  26 H26           -0.8387     1.2486    -0.8280 H       
  27 H27           -0.8292     1.0718     0.9437 H       
  28 H28           -0.6000    -1.1441    -0.0730 H       
  29 H29            0.7733    -0.5827    -1.0612 H       
  30 H30            3.0092     0.0481     0.3814 H       
  31 H31            1.1958     1.6431     2.2502 H       
  32 H32            2.6605     2.2359     1.4295 H       
  33 H33            1.5873     1.8009    -0.7732 H       
  34 H34            0.6348     2.9442     0.2031 H       
  35 H35           -0.4784    -2.9422     0.5821 H       
  36 H36           -0.1738    -4.8231     2.1232 H       
  37 H37            0.2012    -3.7122     3.5112 H       
  38 H38           -2.4929    -4.0394     2.0044 H       
  39 H39           -2.2360    -3.6311     3.7561 H       
  40 H40           -1.2485    -1.4584     3.1984 H       
  41 H41           -2.2312    -1.6243     1.6792 H       
  42 H42            6.6894    -1.8196     2.6570 H       
  43 H43            8.7171    -2.7507     3.6913 H       
  44 H44            8.8464    -3.0212     6.1320 H       
  45 H45            4.9069    -1.4167     6.5314 H       
  46 H46            8.3276    -3.9338     7.9406 H       
  47 H47            9.0073    -2.2952     8.0866 H       
  48 H48            8.0981    -3.0056     9.4420 H       
@<TRIPOS>BOND
   1    1    2 1
   2    1    6 1
   3    1   26 1
   4    1   27 1
   5    2    3 1
   6    2   28 1
   7    2   29 1
   8    3    4 1
   9    3    7 am
  10    4    5 1
  11    4   13 1
  12    4   30 1
  13    5    6 1
  14    5   31 1
  15    5   32 1
  16    6   33 1
  17    6   34 1
  18    7    8 2
  19    7    9 1
  20    9   10 1
  21    9   12 1
  22    9   35 1
  23   10   11 1
  24   10   36 1
  25   10   37 1
  26   11   12 1
  27   11   38 1
  28   11   39 1
  29   12   40 1
  30   12   41 1
  31   13   14 2
  32   13   17 1
  33   14   15 1
  34   15   16 2
  35   15   18 1
  36   16   17 1
  37   18   19 ar
  38   18   23 ar
  39   19   20 ar
  40   19   42 1
  41   20   21 ar
  42   20   43 1
  43   21   22 ar
  44   21   44 1
  45   22   23 ar
  46   22   24 1
  47   23   45 1
  48   24   25 1
  49   25   46 1
  50   25   47 1
  51   25   48 1

#	End of record

