#	Name: ASD03540175
#	Creating user name:	WinNT
#	Creation time:	15. 06. 2019 20:42

#	Modifying user name:	WinNT
#	Modification time:	15. 06. 2019 20:42

#	Program:	/corina/corina34_cracker 3.40 0067  02.08.2006

@<TRIPOS>MOLECULE
ASD03540175
  69   72    0    0    0
SMALL
NO_CHARGES


@<TRIPOS>ATOM
   1 C1             2.7566    -8.6921    -2.5441 C.2     
   2 C2             2.0643    -7.5593    -1.8962 C.ar    
   3 C3             2.7931    -6.4565    -1.4465 C.ar    
   4 C4             2.1402    -5.4020    -0.8427 C.ar    
   5 C5             0.7663    -5.4356    -0.6819 C.ar    
   6 C6             0.0380    -6.5255    -1.1248 C.ar    
   7 C7             0.6775    -7.5841    -1.7359 C.ar    
   8 O8             3.9626    -8.6655    -2.6867 O.2     
   9 O9             2.0511    -9.7570    -2.9719 O.3     
  10 C10            0.0601    -4.2800    -0.0210 C.3     
  11 C11           -2.3002    -4.3354     0.5393 C.2     
  12 N12           -3.3607    -4.7614     1.2401 N.am    
  13 C13           -3.2260    -5.6927     2.2544 C.2     
  14 C14           -1.9634    -6.1935     2.5486 C.2     
  15 C15           -0.8249    -5.6915     1.7469 C.2     
  16 N16           -1.0579    -4.7846     0.7800 N.am    
  17 C17           -1.9741    -7.1224     3.5916 C.2     
  18 C18           -3.1907    -7.3565     4.1112 C.2     
  19 S19           -4.3982    -6.3897     3.2832 S.3     
  20 O20            0.3042    -6.0930     1.9583 O.2     
  21 O21           -2.4694    -3.5197    -0.3462 O.2     
  22 C22            1.0411    -3.5338     0.8856 C.3     
  23 C23           -3.4688    -8.2846     5.2098 C.2     
  24 N24           -4.7311    -8.4434     5.6546 N.am    
  25 O25           -2.5598    -8.9124     5.7210 O.2     
  26 C26           -5.0092    -9.3716     6.7534 C.3     
  27 C27           -6.4854    -9.3635     7.0564 C.ar    
  28 C28           -7.3284   -10.2440     6.4059 C.ar    
  29 C29           -8.6871   -10.2360     6.6853 C.ar    
  30 C30           -9.1960    -9.3433     7.6176 C.ar    
  31 C31           -8.3491    -8.4651     8.2651 C.ar    
  32 C32           -6.9942    -8.4789     7.9890 C.ar    
  33 O33           -9.5184   -11.1008     6.0465 O.3     
  34 C34          -10.9054   -11.0363     6.3841 C.3     
  35 C35            2.7972   -10.8331    -3.5992 C.3     
  36 C36            1.8338   -11.9462    -4.0161 C.3     
  37 N37            0.9264   -11.4442    -5.0566 N.3     
  38 C38            1.6604   -11.1367    -6.2914 C.3     
  39 C39           -0.1595   -12.3995    -5.3137 C.3     
  40 H40            3.8656    -6.4294    -1.5707 H       
  41 H41            2.7027    -4.5484    -0.4944 H       
  42 H42           -1.0340    -6.5456    -0.9956 H       
  43 H43            0.1073    -8.4320    -2.0855 H       
  44 H44           -0.3178    -3.6003    -0.7847 H       
  45 H45           -4.2403    -4.4093     1.0321 H       
  46 H46           -1.0801    -7.6112     3.9499 H       
  47 H47            1.8729    -3.1584     0.2896 H       
  48 H48            0.5302    -2.6980     1.3636 H       
  49 H49            1.4190    -4.2135     1.6493 H       
  50 H50           -5.4554    -7.9431     5.2472 H       
  51 H51           -4.7029   -10.3774     6.4658 H       
  52 H52           -4.4547    -9.0624     7.6394 H       
  53 H53           -6.9299   -10.9376     5.6804 H       
  54 H54          -10.2536    -9.3349     7.8365 H       
  55 H55           -8.7449    -7.7698     8.9906 H       
  56 H56           -6.3329    -7.7947     8.4998 H       
  57 H57          -11.0305   -11.2411     7.4473 H       
  58 H58          -11.2884   -10.0411     6.1583 H       
  59 H59          -11.4553   -11.7774     5.8041 H       
  60 H60            3.3143   -10.4516    -4.4797 H       
  61 H61            3.5265   -11.2296    -2.8928 H       
  62 H62            2.4015   -12.7911    -4.4058 H       
  63 H63            1.2529   -12.2667    -3.1512 H       
  64 H64            2.1479   -12.0397    -6.6588 H       
  65 H65            0.9649   -10.7671    -7.0450 H       
  66 H66            2.4128   -10.3751    -6.0868 H       
  67 H67           -0.7301   -12.5559    -4.3983 H       
  68 H68           -0.8164   -12.0031    -6.0880 H       
  69 H69            0.2621   -13.3482    -5.6457 H       
@<TRIPOS>BOND
   1    1    2 1
   2    1    8 2
   3    1    9 1
   4    2    3 ar
   5    2    7 ar
   6    3    4 ar
   7    3   40 1
   8    4    5 ar
   9    4   41 1
  10    5    6 ar
  11    5   10 1
  12    6    7 ar
  13    6   42 1
  14    7   43 1
  15    9   35 1
  16   10   16 1
  17   10   22 1
  18   10   44 1
  19   11   12 am
  20   11   16 am
  21   11   21 2
  22   12   13 1
  23   12   45 1
  24   13   14 2
  25   13   19 1
  26   14   15 1
  27   14   17 1
  28   15   16 am
  29   15   20 2
  30   17   18 2
  31   17   46 1
  32   18   19 1
  33   18   23 1
  34   22   47 1
  35   22   48 1
  36   22   49 1
  37   23   24 am
  38   23   25 2
  39   24   26 1
  40   24   50 1
  41   26   27 1
  42   26   51 1
  43   26   52 1
  44   27   28 ar
  45   27   32 ar
  46   28   29 ar
  47   28   53 1
  48   29   30 ar
  49   29   33 1
  50   30   31 ar
  51   30   54 1
  52   31   32 ar
  53   31   55 1
  54   32   56 1
  55   33   34 1
  56   34   57 1
  57   34   58 1
  58   34   59 1
  59   35   36 1
  60   35   60 1
  61   35   61 1
  62   36   37 1
  63   36   62 1
  64   36   63 1
  65   37   38 1
  66   37   39 1
  67   38   64 1
  68   38   65 1
  69   38   66 1
  70   39   67 1
  71   39   68 1
  72   39   69 1

#	End of record

