#	Name: ASD00843164
#	Creating user name:	WinNT
#	Creation time:	15. 06. 2019 18:46

#	Modifying user name:	WinNT
#	Modification time:	15. 06. 2019 18:46

#	Program:	/corina/corina34_cracker 3.40 0067  02.08.2006

@<TRIPOS>MOLECULE
ASD00843164
  86   91    0    0    0
SMALL
NO_CHARGES


@<TRIPOS>ATOM
   1 N1            -0.0051     1.3211     0.0355 N.ar    
   2 C2             0.0089    -0.0012     0.0185 C.ar    
   3 C3             1.2116    -0.6961    -0.0015 C.ar    
   4 C4             2.3994     0.0138    -0.0035 C.ar    
   5 C5             2.3418     1.4008     0.0147 C.ar    
   6 C6             1.1109     2.0254     0.0341 C.ar    
   7 C7             1.2227    -2.2030    -0.0203 C.3     
   8 C8             0.4753    -2.7238    -1.2294 C.2     
   9 N9             2.5990    -2.7050    -0.0123 N.am    
  10 C10            3.4466    -2.3635    -1.0029 C.2     
  11 N11            4.7401    -2.7371    -0.9417 N.am    
  12 O12            3.0444    -1.7184    -1.9518 O.2     
  13 C13            5.2677    -3.4158     0.2497 C.3     
  14 C14            6.4985    -2.6518     0.7480 C.3     
  15 C15            7.5064    -2.5150    -0.3954 C.3     
  16 C16            6.8758    -1.7203    -1.5412 C.3     
  17 C17            5.6479    -2.4788    -2.0677 C.3     
  18 N18            8.7022    -1.8118     0.0878 N.3     
  19 C19            9.7416    -1.7658    -0.9501 C.3     
  20 C20           10.9362    -0.9586    -0.4365 C.3     
  21 N21           11.4506    -1.5780     0.7928 N.3     
  22 C22           10.4112    -1.6239     1.8307 C.3     
  23 C23            9.2166    -2.4312     1.3172 C.3     
  24 C24           12.6464    -0.8748     1.2761 C.3     
  25 O25            0.7560    -2.5216    -2.3919 O.2     
  26 N26           -0.5572    -3.4524    -0.7728 N.am    
  27 C27            0.4486    -2.7529     1.1557 C.ar    
  28 C28           -0.6015    -3.4896     0.6224 C.ar    
  29 C29            0.6135    -2.6423     2.5182 C.ar    
  30 C30           -1.3271    -4.0099     2.8552 C.ar    
  31 C31           -1.4923    -4.1203     1.4879 C.ar    
  32 F32           -2.1944    -4.6244     3.6891 F       
  33 C33           -1.0276    -5.8359    -2.0659 C.ar    
  34 C34           -1.3610    -6.8797    -1.2227 C.ar    
  35 C35           -0.2102    -6.0606    -3.1582 C.ar    
  36 C36            0.2754    -7.3292    -3.4097 C.ar    
  37 C37           -0.0576    -8.3782    -2.5651 C.ar    
  38 C38           -0.8775    -8.1500    -1.4695 C.ar    
  39 O39            0.4186    -9.6271    -2.8106 O.3     
  40 H40           -1.9996    -6.7017    -0.3701 H       
  41 C41            0.0346   -10.6586    -1.8991 C.3     
  42 C42           -0.2753    -3.2710     3.3753 C.ar    
  43 F43           -0.1173    -3.1649     4.7128 F       
  44 S44           -1.6513    -4.2182    -1.7521 S.o2    
  45 O45           -2.8322    -4.3862    -0.9798 O.2     
  46 O46           -1.6270    -3.5306    -2.9954 O.2     
  47 O47           -1.1626    -0.6857     0.0211 O.3     
  48 C48           -2.3649     0.0863     0.0426 C.3     
  49 C49           -3.5735    -0.8519     0.0423 C.3     
  50 F50           -3.5485    -1.6442    -1.1104 F       
  51 F51           -3.5264    -1.6733     1.1739 F       
  52 H52            3.3496    -0.4994    -0.0185 H       
  53 H53            3.2502     1.9848     0.0141 H       
  54 H54            1.0605     3.1041     0.0480 H       
  55 H55            2.9002    -3.2831     0.7060 H       
  56 H56            4.5061    -3.4301     1.0294 H       
  57 H57            5.5504    -4.4369    -0.0065 H       
  58 H58            6.1982    -1.6610     1.0889 H       
  59 H59            6.9561    -3.1977     1.5730 H       
  60 H60            7.7875    -3.5058    -0.7523 H       
  61 H61            6.5720    -0.7382    -1.1788 H       
  62 H62            7.6020    -1.6031    -2.3456 H       
  63 H63            5.9643    -3.4221    -2.5128 H       
  64 H64            5.1371    -1.8726    -2.8158 H       
  65 H65           10.0631    -2.7798    -1.1878 H       
  66 H66            9.3404    -1.2917    -1.8458 H       
  67 H67           11.7202    -0.9476    -1.1938 H       
  68 H68           10.6206     0.0630    -0.2245 H       
  69 H69           10.8125    -2.0980     2.7264 H       
  70 H70           10.0897    -0.6099     2.0685 H       
  71 H71            8.4327    -2.4422     2.0744 H       
  72 H72            9.5322    -3.4527     1.1052 H       
  73 H73           12.3961     0.1650     1.4869 H       
  74 H74           13.0064    -1.3537     2.1867 H       
  75 H75           13.4240    -0.9138     0.5132 H       
  76 H76            1.4348    -2.0664     2.9183 H       
  77 H77           -2.3138    -4.6971     1.0893 H       
  78 H78            0.0485    -5.2437    -3.8156 H       
  79 H79            0.9136    -7.5042    -4.2632 H       
  80 H80           -1.1385    -8.9651    -0.8107 H       
  81 H81            0.4818   -11.6028    -2.2097 H       
  82 H82            0.3803   -10.4050    -0.8970 H       
  83 H83           -1.0512   -10.7545    -1.8955 H       
  84 H84           -2.3844     0.7036     0.9408 H       
  85 H85           -2.4016     0.7263    -0.8390 H       
  86 H86           -4.4906    -0.2631     0.0587 H       
@<TRIPOS>BOND
   1    1    2 ar
   2    1    6 ar
   3    2    3 ar
   4    2   47 1
   5    3    4 ar
   6    3    7 1
   7    4    5 ar
   8    4   52 1
   9    5    6 ar
  10    5   53 1
  11    6   54 1
  12    7    8 1
  13    7    9 1
  14    7   27 1
  15    8   25 2
  16    8   26 am
  17    9   10 am
  18    9   55 1
  19   10   11 am
  20   10   12 2
  21   11   13 1
  22   11   17 1
  23   13   14 1
  24   13   56 1
  25   13   57 1
  26   14   15 1
  27   14   58 1
  28   14   59 1
  29   15   16 1
  30   15   18 1
  31   15   60 1
  32   16   17 1
  33   16   61 1
  34   16   62 1
  35   17   63 1
  36   17   64 1
  37   18   19 1
  38   18   23 1
  39   19   20 1
  40   19   65 1
  41   19   66 1
  42   20   21 1
  43   20   67 1
  44   20   68 1
  45   21   22 1
  46   21   24 1
  47   22   23 1
  48   22   69 1
  49   22   70 1
  50   23   71 1
  51   23   72 1
  52   24   73 1
  53   24   74 1
  54   24   75 1
  55   26   44 am
  56   26   28 1
  57   27   28 ar
  58   27   29 ar
  59   28   31 ar
  60   29   42 ar
  61   29   76 1
  62   30   31 ar
  63   30   32 1
  64   30   42 ar
  65   31   77 1
  66   33   34 ar
  67   33   35 ar
  68   33   44 1
  69   34   40 1
  70   34   38 ar
  71   35   36 ar
  72   35   78 1
  73   36   37 ar
  74   36   79 1
  75   37   38 ar
  76   37   39 1
  77   38   80 1
  78   39   41 1
  79   41   81 1
  80   41   82 1
  81   41   83 1
  82   42   43 1
  83   44   45 2
  84   44   46 2
  85   47   48 1
  86   48   49 1
  87   48   84 1
  88   48   85 1
  89   49   50 1
  90   49   51 1
  91   49   86 1

#	End of record

