#	Name: ASD05250023
#	Creating user name:	WinNT
#	Creation time:	15. 06. 2019 20:58

#	Modifying user name:	WinNT
#	Modification time:	15. 06. 2019 20:58

#	Program:	/corina/corina34_cracker 3.40 0067  02.08.2006

@<TRIPOS>MOLECULE
ASD05250023
  56   60    0    0    0
SMALL
NO_CHARGES


@<TRIPOS>ATOM
   1 C1            -0.0168     1.3897     0.0097 C.ar    
   2 C2             0.0021    -0.0041     0.0020 C.ar    
   3 C3             1.1786    -0.6868    -0.0124 C.ar    
   4 C4             2.3967     0.0183    -0.0202 C.ar    
   5 C5             2.3777     1.4354    -0.0130 C.ar    
   6 C6             1.1402     2.1051     0.0025 C.ar    
   7 N7             3.5606    -0.6427    -0.0339 N.ar    
   8 C8             4.6919     0.0333    -0.0411 C.ar    
   9 C9             4.6745     1.4987    -0.0342 C.ar    
  10 N10            3.5213     2.1320    -0.0207 N.ar    
  11 C11            6.1158    -0.3402    -0.0553 C.2     
  12 C12            6.8366     0.8488    -0.0561 C.2     
  13 N13            5.9911     1.9178    -0.0438 N.pl3   
  14 C14            6.6641    -1.6947    -0.0658 C.2     
  15 N15            6.9268    -2.3244     1.0964 N.am    
  16 O16            6.8836    -2.2544    -1.1247 O.2     
  17 C17            7.4765    -3.6824     1.0859 C.3     
  18 C18            7.6800    -4.1614     2.5246 C.3     
  19 O19            6.4108    -4.3074     3.1723 O.3     
  20 C20            6.2084    -5.6781     3.5515 C.3     
  21 C21            7.6317    -6.2766     3.6807 C.3     
  22 C22            8.3654    -5.5448     2.5240 C.3     
  23 N23            8.2046     0.9340    -0.0677 N.pl3   
  24 C24            6.4007     3.2577    -0.0409 C.ar    
  25 C25            6.5944     3.9285    -1.2409 C.ar    
  26 C26            6.9978     5.2496    -1.2347 C.ar    
  27 C27            7.2088     5.9039    -0.0352 C.ar    
  28 C28            7.0172     5.2383     1.1619 C.ar    
  29 C29            6.6083     3.9192     1.1623 C.ar    
  30 C30            7.6681     2.4204     2.8296 C.3     
  31 C31            6.3993     3.1947     2.4671 C.3     
  32 H32           -0.9637     1.9091     0.0170 H       
  33 H33           -0.9301    -0.5494     0.0080 H       
  34 H34            1.1780    -1.7668    -0.0175 H       
  35 H35            1.1091     3.1846     0.0086 H       
  36 H36            6.7519    -1.8786     1.9400 H       
  37 H37            6.7835    -4.3509     0.5749 H       
  38 H38            8.4334    -3.6829     0.5639 H       
  39 H39            8.2930    -3.4438     3.0699 H       
  40 H40            5.6866    -5.7332     4.5069 H       
  41 H41            5.6451    -6.2045     2.7810 H       
  42 H42            8.0753    -6.0302     4.6454 H       
  43 H43            7.6207    -7.3545     3.5193 H       
  44 H44            8.2033    -6.0576     1.5759 H       
  45 H45            9.4300    -5.4503     2.7381 H       
  46 H46            8.7408     0.1257    -0.0765 H       
  47 H47            8.6365     1.8025    -0.0672 H       
  48 H48            6.4301     3.4178    -2.1782 H       
  49 H49            7.1490     5.7719    -2.1679 H       
  50 H50            7.5242     6.9368    -0.0329 H       
  51 H51            7.1831     5.7519     2.0973 H       
  52 H52            7.8896     1.6978     2.0442 H       
  53 H53            8.5018     3.1154     2.9294 H       
  54 H54            7.5169     1.8964     3.7733 H       
  55 H55            6.1778     3.9174     3.2525 H       
  56 H56            5.5655     2.4997     2.3673 H       
@<TRIPOS>BOND
   1    1    2 ar
   2    1    6 ar
   3    1   32 1
   4    2    3 ar
   5    2   33 1
   6    3    4 ar
   7    3   34 1
   8    4    5 ar
   9    4    7 ar
  10    5    6 ar
  11    5   10 ar
  12    6   35 1
  13    7    8 ar
  14    8    9 ar
  15    8   11 1
  16    9   10 ar
  17    9   13 1
  18   11   12 2
  19   11   14 1
  20   12   13 1
  21   12   23 1
  22   13   24 1
  23   14   15 am
  24   14   16 2
  25   15   17 1
  26   15   36 1
  27   17   18 1
  28   17   37 1
  29   17   38 1
  30   18   19 1
  31   18   22 1
  32   18   39 1
  33   19   20 1
  34   20   21 1
  35   20   40 1
  36   20   41 1
  37   21   22 1
  38   21   42 1
  39   21   43 1
  40   22   44 1
  41   22   45 1
  42   23   46 1
  43   23   47 1
  44   24   25 ar
  45   24   29 ar
  46   25   26 ar
  47   25   48 1
  48   26   27 ar
  49   26   49 1
  50   27   28 ar
  51   27   50 1
  52   28   29 ar
  53   28   51 1
  54   29   31 1
  55   30   31 1
  56   30   52 1
  57   30   53 1
  58   30   54 1
  59   31   55 1
  60   31   56 1

#	End of record

