#	Name: ASD01917425
#	Creating user name:	WinNT
#	Creation time:	15. 06. 2019 20:09

#	Modifying user name:	WinNT
#	Modification time:	15. 06. 2019 20:09

#	Program:	/corina/corina34_cracker 3.40 0067  02.08.2006

@<TRIPOS>MOLECULE
ASD01917425
  55   58    0    0    0
SMALL
NO_CHARGES


@<TRIPOS>ATOM
   1 C1            -0.0228     1.3396     0.0102 C.2     
   2 N2            -0.0020    -0.0079    -0.0004 N.am    
   3 O3             1.0200     1.9634     0.0090 O.2     
   4 O4            -1.1990     1.9947     0.0166 O.3     
   5 C5             1.2778    -0.7207    -0.0134 C.3     
   6 C6             2.1390    -0.3643    -1.2377 C.3     
   7 C7             3.5352    -0.9632    -1.0566 C.3     
   8 C8             3.4408    -2.4725    -0.8249 C.3     
   9 C9             2.5236    -2.7381     0.3817 C.3     
  10 C10            2.9324    -1.7517     1.4999 C.3     
  11 C11            2.1278    -0.4413     1.2476 C.3     
  12 C12            1.1038    -2.2624    -0.0248 C.3     
  13 C13            2.5639    -4.1755     0.8325 C.2     
  14 N14            3.7297    -4.7262     1.2250 N.am    
  15 O15            1.5473    -4.8367     0.8422 O.2     
  16 C16            2.6309    -7.9023     2.4377 C.ar    
  17 N17            2.6161    -6.6789     1.9485 N.ar    
  18 C18            3.7497    -6.0169     1.7419 C.ar    
  19 C19            4.9604    -6.6376     2.0515 C.ar    
  20 C20            4.9277    -7.9211     2.5623 C.ar    
  21 N21            3.7570    -8.5161     2.7403 N.ar    
  22 C22            1.3235    -8.6170     2.6634 C.3     
  23 C23           -1.1454     3.4457     0.0280 C.3     
  24 C24           -2.5467     4.0001     0.0338 C.ar    
  25 C25           -3.1881     4.2450     1.2336 C.ar    
  26 C26           -4.4735     4.7536     1.2389 C.ar    
  27 C27           -5.1173     5.0176     0.0445 C.ar    
  28 C28           -4.4755     4.7736    -1.1553 C.ar    
  29 C29           -3.1885     4.2691    -1.1606 C.ar    
  30 H30           -0.8345    -0.5058     0.0007 H       
  31 H31            1.6805    -0.7738    -2.1378 H       
  32 H32            2.2158     0.7193    -1.3267 H       
  33 H33            4.1284    -0.7719    -1.9508 H       
  34 H34            4.0195    -0.4962    -0.1990 H       
  35 H35            3.0256    -2.9522    -1.7113 H       
  36 H36            4.4341    -2.8733    -0.6232 H       
  37 H37            2.6769    -2.1648     2.4757 H       
  38 H38            4.0019    -1.5480     1.4472 H       
  39 H39            2.8098     0.3888     1.0632 H       
  40 H40            1.4793    -0.2132     2.0935 H       
  41 H41            0.3520    -2.5763     0.6993 H       
  42 H42            0.8551    -2.6203    -1.0239 H       
  43 H43            4.5548    -4.2222     1.1469 H       
  44 H44            5.8996    -6.1278     1.8954 H       
  45 H45            5.8449    -8.4330     2.8135 H       
  46 H46            1.0519    -9.1701     1.7643 H       
  47 H47            1.4274    -9.3096     3.4985 H       
  48 H48            0.5455    -7.8881     2.8905 H       
  49 H49           -0.6175     3.7828     0.9200 H       
  50 H50           -0.6194     3.7968    -0.8599 H       
  51 H51           -2.6851     4.0387     2.1668 H       
  52 H52           -4.9749     4.9442     2.1763 H       
  53 H53           -6.1218     5.4143     0.0487 H       
  54 H54           -4.9787     4.9796    -2.0885 H       
  55 H55           -2.6858     4.0819    -2.0979 H       
@<TRIPOS>BOND
   1    1    2 am
   2    1    3 2
   3    1    4 1
   4    2    5 1
   5    2   30 1
   6    4   23 1
   7    5    6 1
   8    5   11 1
   9    5   12 1
  10    6    7 1
  11    6   31 1
  12    6   32 1
  13    7    8 1
  14    7   33 1
  15    7   34 1
  16    8    9 1
  17    8   35 1
  18    8   36 1
  19    9   10 1
  20    9   12 1
  21    9   13 1
  22   10   11 1
  23   10   37 1
  24   10   38 1
  25   11   39 1
  26   11   40 1
  27   12   41 1
  28   12   42 1
  29   13   14 am
  30   13   15 2
  31   14   18 1
  32   14   43 1
  33   16   17 ar
  34   16   21 ar
  35   16   22 1
  36   17   18 ar
  37   18   19 ar
  38   19   20 ar
  39   19   44 1
  40   20   21 ar
  41   20   45 1
  42   22   46 1
  43   22   47 1
  44   22   48 1
  45   23   24 1
  46   23   49 1
  47   23   50 1
  48   24   25 ar
  49   24   29 ar
  50   25   26 ar
  51   25   51 1
  52   26   27 ar
  53   26   52 1
  54   27   28 ar
  55   27   53 1
  56   28   29 ar
  57   28   54 1
  58   29   55 1

#	End of record

