#	Name: ASD05380098
#	Creating user name:	WinNT
#	Creation time:	15. 06. 2019 20:59

#	Modifying user name:	WinNT
#	Modification time:	15. 06. 2019 20:59

#	Program:	/corina/corina34_cracker 3.40 0067  02.08.2006

@<TRIPOS>MOLECULE
ASD05380098
  49   53    0    0    0
SMALL
NO_CHARGES


@<TRIPOS>ATOM
   1 C1            -0.2697     1.7430    -0.3088 C.ar    
   2 C2            -0.0034     0.3797    -0.5676 C.ar    
   3 C3             0.6320     2.7210    -0.7225 C.ar    
   4 C4             1.7819     2.3481    -1.3840 C.ar    
   5 C5             2.0467     1.0094    -1.6400 C.ar    
   6 C6             1.1685     0.0273    -1.2395 C.ar    
   7 N7            -0.8955    -0.5551    -0.1550 N.2     
   8 C8            -1.9851    -0.2271     0.4703 C.2     
   9 N9            -2.3220     1.0586     0.7614 N.am    
  10 C10           -1.5092     2.0808     0.4060 C.2     
  11 C11           -3.5178     1.3263     1.4395 C.ar    
  12 C12           -4.6866     1.5518     0.7248 C.ar    
  13 C13           -3.5373     1.3608     2.8273 C.ar    
  14 C14           -5.8830     1.8557     2.7805 C.ar    
  15 C15           -2.9247    -1.3262     0.8948 C.3     
  16 N16           -2.9255    -2.3858    -0.1169 N.pl3   
  17 C17           -4.0240    -3.2174    -0.2471 C.ar    
  18 N18           -5.0864    -3.0685     0.5376 N.ar    
  19 O19           -1.7977     3.2358     0.6603 O.2     
  20 C20           -4.0445    -4.2350    -1.2157 C.ar    
  21 C21           -5.1878    -5.0477    -1.3001 C.ar    
  22 N22           -6.2001    -4.8267    -0.4681 N.ar    
  23 C23           -6.1389    -3.8573     0.4205 C.ar    
  24 N24           -3.1772    -4.6666    -2.1627 N.2     
  25 C25           -3.7025    -5.6678    -2.8072 C.2     
  26 N26           -4.9428    -5.9412    -2.3120 N.pl3   
  27 C27           -5.8669     1.8161     1.3965 C.ar    
  28 C28           -4.7196     1.6254     3.4952 C.ar    
  29 C29           -2.4639    -1.9016     2.2355 C.3     
  30 C30            0.3518     4.1763    -0.4490 C.3     
  31 F31           -7.0032     2.0416     0.7014 F       
  32 F32           -4.7391     1.6586     4.8457 F       
  33 H33            2.4830     3.1037    -1.7065 H       
  34 H34            2.9526     0.7350    -2.1600 H       
  35 H35            1.3854    -1.0108    -1.4440 H       
  36 H36           -4.6743     1.5214    -0.3547 H       
  37 H37           -2.6301     1.1808     3.3850 H       
  38 H38           -6.8052     2.0622     3.3034 H       
  39 H39           -3.9319    -0.9230     0.9994 H       
  40 H40           -2.1561    -2.5045    -0.6956 H       
  41 H41           -6.9808    -3.7017     1.0789 H       
  42 H42           -3.2260    -6.2031    -3.6151 H       
  43 H43           -5.5419    -6.6398    -2.6184 H       
  44 H44           -1.4447    -2.2760     2.1392 H       
  45 H45           -2.4938    -1.1208     2.9955 H       
  46 H46           -3.1248    -2.7179     2.5270 H       
  47 H47            0.6717     4.4239     0.5632 H       
  48 H48            0.8980     4.7920    -1.1635 H       
  49 H49           -0.7170     4.3654    -0.5487 H       
@<TRIPOS>BOND
   1    1    2 ar
   2    1    3 ar
   3    1   10 1
   4    2    7 1
   5    2    6 ar
   6    3    4 ar
   7    3   30 1
   8    4    5 ar
   9    4   33 1
  10    5    6 ar
  11    5   34 1
  12    6   35 1
  13    7    8 2
  14    8    9 1
  15    8   15 1
  16    9   10 am
  17    9   11 1
  18   10   19 2
  19   11   12 ar
  20   11   13 ar
  21   12   27 ar
  22   12   36 1
  23   13   28 ar
  24   13   37 1
  25   14   27 ar
  26   14   28 ar
  27   14   38 1
  28   15   16 1
  29   15   29 1
  30   15   39 1
  31   16   17 1
  32   16   40 1
  33   17   18 ar
  34   17   20 ar
  35   18   23 ar
  36   20   21 ar
  37   20   24 1
  38   21   22 ar
  39   21   26 1
  40   22   23 ar
  41   23   41 1
  42   24   25 2
  43   25   26 1
  44   25   42 1
  45   26   43 1
  46   27   31 1
  47   28   32 1
  48   29   44 1
  49   29   45 1
  50   29   46 1
  51   30   47 1
  52   30   48 1
  53   30   49 1

#	End of record

