#	Name: ASD01200266
#	Creating user name:	WinNT
#	Creation time:	15. 06. 2019 19:08

#	Modifying user name:	WinNT
#	Modification time:	15. 06. 2019 19:08

#	Program:	/corina/corina34_cracker 3.40 0067  02.08.2006

@<TRIPOS>MOLECULE
ASD01200266
  58   62    0    0    0
SMALL
NO_CHARGES


@<TRIPOS>ATOM
   1 C1            -0.1382     1.4247    -0.5611 C.ar    
   2 N2            -0.4577     0.9923     0.6428 N.ar    
   3 C3            -1.5362     0.2646     0.8557 C.ar    
   4 C4            -2.3800    -0.0739    -0.1922 C.ar    
   5 C5            -2.0727     0.3660    -1.4763 C.ar    
   6 C6            -0.9327     1.1326    -1.6543 C.ar    
   7 C7             1.1065     2.2537    -0.7471 C.3     
   8 O8             1.2442     2.6035    -2.1258 O.3     
   9 C9             2.3994     3.3945    -2.4121 C.3     
  10 O10           -3.4903    -0.8246     0.0319 O.3     
  11 C11           -3.3815    -2.1745    -0.0815 C.ar    
  12 C12           -4.5178    -2.9725     0.0259 C.ar    
  13 C13           -4.4275    -4.3300    -0.0857 C.ar    
  14 C14           -3.1842    -4.9315    -0.3102 C.ar    
  15 C15           -2.0346    -4.1272    -0.4191 C.ar    
  16 C16           -2.1428    -2.7484    -0.3087 C.ar    
  17 N17           -2.7879    -6.2181    -0.4617 N.2     
  18 C18           -1.4931    -6.2605    -0.6534 C.2     
  19 N19           -0.9798    -4.9905    -0.6357 N.pl3   
  20 C20           -5.8599    -2.3313     0.2682 C.3     
  21 C21           -6.4806    -1.8899    -1.0739 C.3     
  22 C22           -7.9859    -2.2148    -0.8842 C.3     
  23 C23           -7.9201    -3.5094    -0.0361 C.3     
  24 N24           -6.7780    -3.3068     0.8740 N.am    
  25 C25           -6.6043    -3.9153     2.0639 C.2     
  26 C26           -7.6308    -4.8986     2.5644 C.3     
  27 O27           -5.6217    -3.6717     2.7318 O.2     
  28 C28           -0.7032    -7.4949    -0.8580 C.ar    
  29 C29           -1.3428    -8.7337    -0.8551 C.ar    
  30 C30           -0.5900    -9.8797    -1.0483 C.ar    
  31 C31            0.7779    -9.7492    -1.2381 C.ar    
  32 C32            1.3475    -8.4879    -1.2291 C.ar    
  33 N33            0.6086    -7.4135    -1.0483 N.ar    
  34 H34           -1.7650    -0.0718     1.8561 H       
  35 H35           -2.7096     0.1192    -2.3129 H       
  36 H36           -0.6633     1.4911    -2.6368 H       
  37 H37            1.0315     3.1611    -0.1478 H       
  38 H38            1.9765     1.6792    -0.4293 H       
  39 H39            2.4317     3.6176    -3.4786 H       
  40 H40            2.3513     4.3255    -1.8474 H       
  41 H41            3.2963     2.8437    -2.1289 H       
  42 H42           -5.3150    -4.9394    -0.0004 H       
  43 H43           -1.2636    -2.1267    -0.3916 H       
  44 H44           -0.0491    -4.7441    -0.7539 H       
  45 H45           -5.7454    -1.4690     0.9251 H       
  46 H46           -6.3339    -0.8217    -1.2339 H       
  47 H47           -6.0630    -2.4656    -1.8999 H       
  48 H48           -8.4923    -1.4171    -0.3408 H       
  49 H49           -8.4695    -2.4002    -1.8433 H       
  50 H50           -8.8408    -3.6372     0.5332 H       
  51 H51           -7.7460    -4.3741    -0.6765 H       
  52 H52           -8.4355    -4.9869     1.8345 H       
  53 H53           -7.1619    -5.8720     2.7079 H       
  54 H54           -8.0376    -4.5479     3.5129 H       
  55 H55           -2.4102    -8.7986    -0.7040 H       
  56 H56           -1.0574   -10.8533    -1.0508 H       
  57 H57            1.3928   -10.6238    -1.3911 H       
  58 H58            2.4123    -8.3834    -1.3763 H       
@<TRIPOS>BOND
   1    1    2 ar
   2    1    7 1
   3    1    6 ar
   4    2    3 ar
   5    3    4 ar
   6    3   34 1
   7    4    5 ar
   8    4   10 1
   9    5    6 ar
  10    5   35 1
  11    6   36 1
  12    7    8 1
  13    7   37 1
  14    7   38 1
  15    8    9 1
  16    9   39 1
  17    9   40 1
  18    9   41 1
  19   10   11 1
  20   11   12 ar
  21   11   16 ar
  22   12   13 ar
  23   12   20 1
  24   13   14 ar
  25   13   42 1
  26   14   15 ar
  27   14   17 1
  28   15   16 ar
  29   15   19 1
  30   16   43 1
  31   17   18 2
  32   18   19 1
  33   18   28 1
  34   19   44 1
  35   20   21 1
  36   20   24 1
  37   20   45 1
  38   21   22 1
  39   21   46 1
  40   21   47 1
  41   22   23 1
  42   22   48 1
  43   22   49 1
  44   23   24 1
  45   23   50 1
  46   23   51 1
  47   24   25 am
  48   25   26 1
  49   25   27 2
  50   26   52 1
  51   26   53 1
  52   26   54 1
  53   28   29 ar
  54   28   33 ar
  55   29   30 ar
  56   29   55 1
  57   30   31 ar
  58   30   56 1
  59   31   32 ar
  60   31   57 1
  61   32   33 ar
  62   32   58 1

#	End of record

