#	Name: ASD01883348
#	Creating user name:	WinNT
#	Creation time:	15. 06. 2019 19:46

#	Modifying user name:	WinNT
#	Modification time:	15. 06. 2019 19:46

#	Program:	/corina/corina34_cracker 3.40 0067  02.08.2006

@<TRIPOS>MOLECULE
ASD01883348
  50   52    0    0    0
SMALL
NO_CHARGES


@<TRIPOS>ATOM
   1 N1            -0.1200     1.3864    -0.9351 N.am    
   2 C2            -0.1815     0.0714    -1.2155 C.2     
   3 C3            -1.3432    -0.6665    -0.8868 C.2     
   4 C4            -2.4146     0.0012    -0.2690 C.2     
   5 C5            -2.2900     1.3773    -0.0014 C.2     
   6 C6            -1.1545     2.0294    -0.3331 C.2     
   7 O7             0.7624    -0.4831    -1.7525 O.2     
   8 C8            -1.4259    -2.0660    -1.1784 C.1     
   9 N9            -1.4915    -3.1763    -1.4097 N.1     
  10 N10           -3.5643    -0.6780     0.0678 N.pl3   
  11 C11            1.0891     2.1382    -1.2804 C.3     
  12 C12            0.9520     2.7023    -2.6960 C.3     
  13 C13           -3.6151    -2.0712    -0.0540 C.ar    
  14 C14            2.2147     3.4874    -3.0567 C.3     
  15 C15            3.4092     2.5332    -3.1152 C.3     
  16 C16            2.0279     4.1550    -4.4206 C.3     
  17 C17           -2.8607    -2.8708     0.7949 C.ar    
  18 C18           -2.9117    -4.2453     0.6744 C.ar    
  19 C19           -3.7163    -4.8278    -0.2943 C.ar    
  20 C20           -4.4699    -4.0296    -1.1430 C.ar    
  21 C21           -4.4243    -2.6552    -1.0200 C.ar    
  22 O22           -3.7660    -6.1814    -0.4124 O.3     
  23 C23           -4.3260    -6.8892     0.6013 C.ar    
  24 C24           -4.9419    -6.2415     1.6697 C.ar    
  25 C25           -5.4999    -6.9969     2.6804 C.ar    
  26 N26           -5.4545    -8.3153     2.6432 N.ar    
  27 C27           -4.8802    -8.9649     1.6484 C.ar    
  28 C28           -4.3045    -8.2820     0.5969 C.ar    
  29 H29           -3.1007     1.9109     0.4723 H       
  30 H30           -1.0703     3.0854    -0.1225 H       
  31 H31           -4.3389    -0.1907     0.3894 H       
  32 H32            1.2216     2.9577    -0.5740 H       
  33 H33            1.9538     1.4762    -1.2353 H       
  34 H34            0.8195     1.8828    -3.4024 H       
  35 H35            0.0872     3.3643    -2.7412 H       
  36 H36            2.3962     4.2509    -2.3003 H       
  37 H37            4.3088     3.0926    -3.3721 H       
  38 H38            3.5422     2.0576    -2.1434 H       
  39 H39            3.2277     1.7697    -3.8716 H       
  40 H40            1.1769     4.8348    -4.3790 H       
  41 H41            2.9275     4.7143    -4.6776 H       
  42 H42            1.8464     3.3915    -5.1771 H       
  43 H43           -2.2341    -2.4176     1.5487 H       
  44 H44           -2.3249    -4.8672     1.3341 H       
  45 H45           -5.0957    -4.4838    -1.8971 H       
  46 H46           -5.0109    -2.0340    -1.6807 H       
  47 H47           -4.9818    -5.1629     1.7065 H       
  48 H48           -5.9794    -6.5031     3.5126 H       
  49 H49           -4.8643   -10.0448     1.6554 H       
  50 H50           -3.8364    -8.8197    -0.2144 H       
@<TRIPOS>BOND
   1    1    2 am
   2    1   11 1
   3    1    6 1
   4    2    3 1
   5    2    7 2
   6    3    4 2
   7    3    8 1
   8    4    5 1
   9    4   10 1
  10    5    6 2
  11    5   29 1
  12    6   30 1
  13    8    9 3
  14   10   13 1
  15   10   31 1
  16   11   12 1
  17   11   32 1
  18   11   33 1
  19   12   14 1
  20   12   34 1
  21   12   35 1
  22   13   17 ar
  23   13   21 ar
  24   14   15 1
  25   14   16 1
  26   14   36 1
  27   15   37 1
  28   15   38 1
  29   15   39 1
  30   16   40 1
  31   16   41 1
  32   16   42 1
  33   17   18 ar
  34   17   43 1
  35   18   19 ar
  36   18   44 1
  37   19   20 ar
  38   19   22 1
  39   20   21 ar
  40   20   45 1
  41   21   46 1
  42   22   23 1
  43   23   24 ar
  44   23   28 ar
  45   24   25 ar
  46   24   47 1
  47   25   26 ar
  48   25   48 1
  49   26   27 ar
  50   27   28 ar
  51   27   49 1
  52   28   50 1

#	End of record

