#	Name: ASD03092881
#	Creating user name:	WinNT
#	Creation time:	15. 06. 2019 20:33

#	Modifying user name:	WinNT
#	Modification time:	15. 06. 2019 20:33

#	Program:	/corina/corina34_cracker 3.40 0067  02.08.2006

@<TRIPOS>MOLECULE
ASD03092881
  48   50    0    0    0
SMALL
NO_CHARGES


@<TRIPOS>ATOM
   1 C1            -0.0184     1.5028     0.0103 C.3     
   2 C2             0.0021    -0.0041     0.0020 C.ar    
   3 C3             0.0058    -0.6882    -1.1980 C.ar    
   4 C4             0.0250    -2.0722    -1.2073 C.ar    
   5 F5             0.0286    -2.7390    -2.3823 F       
   6 C6             0.0411    -2.7751    -0.0122 C.ar    
   7 F7             0.0608    -4.1259    -0.0232 F       
   8 C8             0.0374    -2.0933     1.1914 C.ar    
   9 C9             0.0230    -0.7050     1.2010 C.ar    
  10 N10            0.0246    -0.0134     2.4161 N.pl3   
  11 C11            0.0467    -0.7536     3.6802 C.3     
  12 C12            0.0437     0.2335     4.8492 C.3     
  13 H13           -0.4544     1.1844     4.6603 H       
  14 C14            1.2693     0.2476     5.7649 C.3     
  15 H15            2.0778    -0.4463     5.5345 H       
  16 C16            1.6955     1.5752     6.3367 C.ar    
  17 C17            0.8877     2.6861     6.1810 C.ar    
  18 C18            1.2786     3.9039     6.7055 C.ar    
  19 C19            2.4770     4.0106     7.3861 C.ar    
  20 C20            3.2844     2.8995     7.5426 C.ar    
  21 C21            2.8915     1.6808     7.0218 C.ar    
  22 S22            2.9758     5.5631     8.0537 S.o2    
  23 N23            2.3757     5.6497     9.5946 N.am    
  24 O24            4.3906     5.5112     8.1764 O.2     
  25 O25            2.2969     6.5598     7.3020 O.2     
  26 C26           -0.0513    -0.3454     6.2623 C.3     
  27 C27           -0.8378     0.4551     7.3022 C.3     
  28 C28           -0.1362    -1.8670     6.3981 C.3     
  29 H29            1.0042     1.8801     0.0026 H       
  30 H30           -0.5455     1.8639    -0.8728 H       
  31 H31           -0.5286     1.8543     0.9071 H       
  32 H32           -0.0067    -0.1426    -2.1300 H       
  33 H33            0.0496    -2.6402     2.1226 H       
  34 H34            0.0111     0.9565     2.4221 H       
  35 H35           -0.8340    -1.3929     3.7422 H       
  36 H36            0.9458    -1.3681     3.7257 H       
  37 H37           -0.0486     2.6027     5.6492 H       
  38 H38            0.6478     4.7720     6.5832 H       
  39 H39            4.2208     2.9830     8.0741 H       
  40 H40            3.5204     0.8118     7.1474 H       
  41 H41            2.8490     6.1581    10.2716 H       
  42 H42            1.5507     5.1920     9.8203 H       
  43 H43           -1.8690     0.5704     6.9682 H       
  44 H44           -0.8216    -0.0730     8.2556 H       
  45 H45           -0.3832     1.4383     7.4237 H       
  46 H46            0.7527    -2.3210     5.9601 H       
  47 H47           -0.1986    -2.1347     7.4529 H       
  48 H48           -1.0230    -2.2293     5.8782 H       
@<TRIPOS>BOND
   1    1    2 1
   2    1   29 1
   3    1   30 1
   4    1   31 1
   5    2    9 ar
   6    2    3 ar
   7    3    4 ar
   8    3   32 1
   9    4    5 1
  10    4    6 ar
  11    6    7 1
  12    6    8 ar
  13    8    9 ar
  14    8   33 1
  15    9   10 1
  16   10   11 1
  17   10   34 1
  18   11   12 1
  19   11   35 1
  20   11   36 1
  21   12   13 1
  22   12   26 1
  23   12   14 1
  24   14   15 1
  25   14   16 1
  26   14   26 1
  27   16   21 ar
  28   16   17 ar
  29   17   18 ar
  30   17   37 1
  31   18   19 ar
  32   18   38 1
  33   19   20 ar
  34   19   22 1
  35   20   21 ar
  36   20   39 1
  37   21   40 1
  38   22   23 am
  39   22   24 2
  40   22   25 2
  41   23   41 1
  42   23   42 1
  43   26   27 1
  44   26   28 1
  45   27   43 1
  46   27   44 1
  47   27   45 1
  48   28   46 1
  49   28   47 1
  50   28   48 1

#	End of record

