#	Name: ASD04590822
#	Creating user name:	WinNT
#	Creation time:	15. 06. 2019 20:51

#	Modifying user name:	WinNT
#	Modification time:	15. 06. 2019 20:51

#	Program:	/corina/corina34_cracker 3.40 0067  02.08.2006

@<TRIPOS>MOLECULE
ASD04590822
  52   57    0    0    0
SMALL
NO_CHARGES


@<TRIPOS>ATOM
   1 N1            -0.0171     1.3231    -0.0122 N.ar    
   2 C2             0.0017    -0.0035    -0.0053 C.ar    
   3 N3             1.1297    -0.6949    -0.0123 N.ar    
   4 C4             2.3049    -0.0729    -0.0268 C.ar    
   5 C5             2.3188     1.3365    -0.0345 C.ar    
   6 C6             1.1071     2.0202    -0.0266 C.ar    
   7 N7             3.6030    -0.5196    -0.0371 N.pl3   
   8 C8             4.4822     0.5494    -0.0515 C.ar    
   9 C9             3.7312     1.7384    -0.0505 C.ar    
  10 C10            5.8679     0.6416    -0.0656 C.ar    
  11 N11            6.4612     1.8178    -0.0774 N.ar    
  12 C12            5.7850     2.9530    -0.0768 C.ar    
  13 C13            4.4064     2.9583    -0.0641 C.ar    
  14 N14           -1.2023    -0.6889     0.0103 N.pl3   
  15 C15           -2.3986     0.0097     0.1309 C.ar    
  16 N16           -2.3737     1.3186     0.3317 N.ar    
  17 C17           -3.4808     2.0229     0.4522 C.ar    
  18 C18           -4.7268     1.4071     0.3719 C.ar    
  19 C19           -4.7902     0.0246     0.1602 C.ar    
  20 C20           -3.6069    -0.6751     0.0334 C.ar    
  21 C21           -5.9697     2.2043     0.5091 C.ar    
  22 C22           -5.9173     3.5853     0.7211 C.ar    
  23 C23           -7.0976     4.2888     0.8428 C.ar    
  24 N24           -8.2631     3.6755     0.7619 N.ar    
  25 C25           -8.3565     2.3745     0.5627 C.ar    
  26 C26           -7.2259     1.5964     0.4242 C.ar    
  27 C27            4.0016    -1.9293    -0.0330 C.3     
  28 C28            3.4614    -2.6262     1.2281 C.3     
  29 C29            2.5280    -3.7544     0.7426 C.3     
  30 C30            3.0197    -4.0625    -0.6936 C.3     
  31 C31            3.3776    -2.6584    -1.2409 C.3     
  32 H32            1.0848     3.0999    -0.0326 H       
  33 H33            6.4643    -0.2588    -0.0667 H       
  34 H34            6.3204     3.8910    -0.0863 H       
  35 H35            3.8597     3.8897    -0.0640 H       
  36 H36           -1.2108    -1.6561    -0.0629 H       
  37 H37           -3.4210     3.0889     0.6152 H       
  38 H38           -5.7419    -0.4816     0.0934 H       
  39 H39           -3.6183    -1.7424    -0.1310 H       
  40 H40           -4.9668     4.0936     0.7890 H       
  41 H41           -7.0673     5.3559     1.0067 H       
  42 H42           -9.3312     1.9133     0.5034 H       
  43 H43           -7.3097     0.5321     0.2611 H       
  44 H44            5.0880    -2.0100    -0.0678 H       
  45 H45            4.2857    -3.0457     1.8049 H       
  46 H46            2.9027    -1.9155     1.8370 H       
  47 H47            2.6306    -4.6342     1.3778 H       
  48 H48            1.4931    -3.4128     0.7264 H       
  49 H49            3.9004    -4.7043    -0.6710 H       
  50 H50            2.2245    -4.5165    -1.2850 H       
  51 H51            2.4798    -2.1399    -1.5773 H       
  52 H52            4.1001    -2.7384    -2.0531 H       
@<TRIPOS>BOND
   1    1    2 ar
   2    1    6 ar
   3    2    3 ar
   4    2   14 1
   5    3    4 ar
   6    4    5 ar
   7    4    7 1
   8    5    6 ar
   9    5    9 1
  10    6   32 1
  11    7    8 1
  12    7   27 1
  13    8    9 ar
  14    8   10 ar
  15    9   13 ar
  16   10   11 ar
  17   10   33 1
  18   11   12 ar
  19   12   13 ar
  20   12   34 1
  21   13   35 1
  22   14   15 1
  23   14   36 1
  24   15   16 ar
  25   15   20 ar
  26   16   17 ar
  27   17   18 ar
  28   17   37 1
  29   18   19 ar
  30   18   21 1
  31   19   20 ar
  32   19   38 1
  33   20   39 1
  34   21   22 ar
  35   21   26 ar
  36   22   23 ar
  37   22   40 1
  38   23   24 ar
  39   23   41 1
  40   24   25 ar
  41   25   26 ar
  42   25   42 1
  43   26   43 1
  44   27   28 1
  45   27   31 1
  46   27   44 1
  47   28   29 1
  48   28   45 1
  49   28   46 1
  50   29   30 1
  51   29   47 1
  52   29   48 1
  53   30   31 1
  54   30   49 1
  55   30   50 1
  56   31   51 1
  57   31   52 1

#	End of record

