#	Name: ASD05130030
#	Creating user name:	WinNT
#	Creation time:	15. 06. 2019 20:56

#	Modifying user name:	WinNT
#	Modification time:	15. 06. 2019 20:56

#	Program:	/corina/corina34_cracker 3.40 0067  02.08.2006

@<TRIPOS>MOLECULE
ASD05130030
  51   54    0    0    0
SMALL
NO_CHARGES


@<TRIPOS>ATOM
   1 N1            -0.1625     1.5512     0.1044 N.am    
   2 C2             0.0506     0.4235     0.8111 C.2     
   3 O3             1.1179     0.2463     1.3661 O.2     
   4 N4            -0.9194    -0.5077     0.9027 N.am    
   5 C5            -0.6633    -1.7238     1.5460 C.ar    
   6 C6            -1.6736    -2.3639     2.2517 C.ar    
   7 C7            -1.4178    -3.5643     2.8851 C.ar    
   8 C8            -0.1573    -4.1287     2.8172 C.ar    
   9 C9             0.8510    -3.4936     2.1157 C.ar    
  10 C10            0.6001    -2.2959     1.4753 C.ar    
  11 C11            0.8113     2.5586     0.0822 C.ar    
  12 C12            0.4342     3.8872    -0.0897 C.ar    
  13 C13            1.3927     4.8848    -0.1122 C.ar    
  14 C14            2.7292     4.5669     0.0355 C.ar    
  15 C15            3.1150     3.2371     0.2083 C.ar    
  16 C16            2.1486     2.2327     0.2370 C.ar    
  17 N17            6.5388     2.8547     1.7748 N.am    
  18 C18            5.2362     3.1676     1.6297 C.2     
  19 C19            4.5477     2.8939     0.3663 C.2     
  20 C20            5.2361     2.3190    -0.6670 C.2     
  21 C21            6.6035     2.0004    -0.4905 C.ar    
  22 C22            7.3466     1.4116    -1.5210 C.ar    
  23 N23            8.6168     1.1223    -1.3407 N.ar    
  24 C24            9.2436     1.3696    -0.1955 C.ar    
  25 C25            8.5824     1.9510     0.8771 C.ar    
  26 C26            7.2383     2.2771     0.7402 C.ar    
  27 O27            4.6284     3.6783     2.5537 O.2     
  28 N28           10.5852     1.0396    -0.0695 N.pl3   
  29 C29           11.2902     1.3061     1.1868 C.3     
  30 C30            7.2178     3.1389     3.0414 C.3     
  31 F31           -0.8711     4.2037    -0.2355 F       
  32 Cl32           3.9284     5.8218     0.0055 Cl      
  33 H33           -0.9881     1.6637    -0.3921 H       
  34 H34           -1.7950    -0.3350     0.5227 H       
  35 H35           -2.6583    -1.9234     2.3054 H       
  36 H36           -2.2031    -4.0624     3.4343 H       
  37 H37            0.0402    -5.0674     3.3133 H       
  38 H38            1.8346    -3.9366     2.0651 H       
  39 H39            1.3867    -1.8027     0.9236 H       
  40 H40            1.0956     5.9144    -0.2458 H       
  41 H41            2.4423     1.2026     0.3749 H       
  42 H42            4.7423     2.1107    -1.6046 H       
  43 H43            6.8745     1.1939    -2.4677 H       
  44 H44            9.1036     2.1471     1.8025 H       
  45 H45           11.0565     0.6326    -0.8132 H       
  46 H46           11.2606     2.3745     1.4006 H       
  47 H47           10.8075     0.7599     1.9972 H       
  48 H48           12.3271     0.9820     1.0974 H       
  49 H49            6.5141     3.5982     3.7357 H       
  50 H50            7.5950     2.2095     3.4681 H       
  51 H51            8.0494     3.8206     2.8629 H       
@<TRIPOS>BOND
   1    1    2 am
   2    1   11 1
   3    1   33 1
   4    2    3 2
   5    2    4 am
   6    4    5 1
   7    4   34 1
   8    5    6 ar
   9    5   10 ar
  10    6    7 ar
  11    6   35 1
  12    7    8 ar
  13    7   36 1
  14    8    9 ar
  15    8   37 1
  16    9   10 ar
  17    9   38 1
  18   10   39 1
  19   11   12 ar
  20   11   16 ar
  21   12   13 ar
  22   12   31 1
  23   13   14 ar
  24   13   40 1
  25   14   15 ar
  26   14   32 1
  27   15   16 ar
  28   15   19 1
  29   16   41 1
  30   17   18 am
  31   17   26 1
  32   17   30 1
  33   18   19 1
  34   18   27 2
  35   19   20 2
  36   20   21 1
  37   20   42 1
  38   21   22 ar
  39   21   26 ar
  40   22   23 ar
  41   22   43 1
  42   23   24 ar
  43   24   25 ar
  44   24   28 1
  45   25   26 ar
  46   25   44 1
  47   28   29 1
  48   28   45 1
  49   29   46 1
  50   29   47 1
  51   29   48 1
  52   30   49 1
  53   30   50 1
  54   30   51 1

#	End of record

