#	Name: ASD04882577
#	Creating user name:	WinNT
#	Creation time:	15. 06. 2019 20:55

#	Modifying user name:	WinNT
#	Modification time:	15. 06. 2019 20:55

#	Program:	/corina/corina34_cracker 3.40 0067  02.08.2006

@<TRIPOS>MOLECULE
ASD04882577
  75   79    0    0    0
SMALL
NO_CHARGES


@<TRIPOS>ATOM
   1 C1            -0.0169     1.3933     0.0097 C.ar    
   2 C2             0.0021    -0.0041     0.0020 C.ar    
   3 C3            -1.1907    -0.7173     0.0101 C.ar    
   4 C4            -2.3958    -0.0500     0.0256 C.ar    
   5 C5            -2.4220     1.3471     0.0334 C.ar    
   6 C6            -1.2234     2.0668     0.0306 C.ar    
   7 N7             1.2187    -0.6833    -0.0142 N.3     
   8 C8             1.3564    -1.5453     1.1680 C.3     
   9 C9             1.3705    -1.4623    -1.2510 C.3     
  10 C10            2.7488    -2.1275    -1.2658 C.3     
  11 N11            2.8865    -2.9895    -0.0836 N.3     
  12 C12            2.7347    -2.2105     1.1532 C.3     
  13 C13           -3.7126     2.0616     0.0501 C.2     
  14 O14           -3.7345     3.2774     0.0568 O.2     
  15 N15           -4.8675     1.3668     0.0579 N.am    
  16 N16            1.1859     2.1105     0.0021 N.pl3   
  17 C17            4.1060    -3.6703    -0.0999 C.ar    
  18 C18            4.1278    -5.0591    -0.1075 C.ar    
  19 C19            5.3355    -5.7291    -0.1241 C.ar    
  20 C20            6.5218    -5.0190    -0.1326 C.ar    
  21 C21            6.5037    -3.6361    -0.1250 C.ar    
  22 C22            5.2998    -2.9599    -0.1142 C.ar    
  23 C23            2.8353    -5.8339    -0.0973 C.3     
  24 C24            1.1654     3.5754     0.0101 C.3     
  25 C25            2.5789     4.0976    -0.0006 C.2     
  26 C26            3.3064     4.3761    -1.0972 C.2     
  27 C27            4.5651     4.8371    -0.6476 C.2     
  28 C28            4.5315     4.8127     0.6969 C.2     
  29 O29            3.3240     4.3695     1.0833 O.3     
  30 C30           -6.1491     2.0764     0.0745 C.3     
  31 C31           -7.2939     1.0614     0.0805 C.3     
  32 C32           -8.6324     1.8024     0.0978 C.3     
  33 N33           -9.7286     0.8305     0.1036 N.am    
  34 C34          -10.2853     0.3217     1.2163 C.2     
  35 C35          -10.3642     0.2920    -1.1047 C.3     
  36 C36          -11.1225    -0.9722    -0.6430 C.3     
  37 C37          -11.3794    -0.6567     0.8500 C.3     
  38 O38           -9.9577     0.6054     2.3490 O.2     
  39 H39           -1.1728    -1.7971     0.0037 H       
  40 H40           -3.3210    -0.6071     0.0315 H       
  41 H41           -1.2405     3.1466     0.0366 H       
  42 H42            1.2527    -0.9435     2.0709 H       
  43 H43            0.5822    -2.3124     1.1509 H       
  44 H44            0.5964    -2.2284    -1.2956 H       
  45 H45            1.2771    -0.8000    -2.1117 H       
  46 H46            2.8525    -2.7293    -2.1687 H       
  47 H47            3.5230    -1.3605    -1.2487 H       
  48 H48            3.5088    -1.4444     1.1978 H       
  49 H49            2.8281    -2.8728     2.0139 H       
  50 H50           -4.8501     0.3970     0.0525 H       
  51 H51            2.0326     1.6374    -0.0086 H       
  52 H52            5.3532    -6.8090    -0.1301 H       
  53 H53            7.4648    -5.5455    -0.1448 H       
  54 H54            7.4322    -3.0845    -0.1313 H       
  55 H55            5.2864    -1.8800    -0.1086 H       
  56 H56            2.5122    -6.0152    -1.1224 H       
  57 H57            2.9869    -6.7867     0.4098 H       
  58 H58            2.0719    -5.2601     0.4281 H       
  59 H59            0.6380     3.9362    -0.8729 H       
  60 H60            0.6550     3.9267     0.9069 H       
  61 H61            2.9899     4.2678    -2.1241 H       
  62 H62            5.3945     5.1486    -1.2652 H       
  63 H63            5.3374     5.1040     1.3542 H       
  64 H64           -6.2092     2.6971     0.9685 H       
  65 H65           -6.2270     2.7067    -0.8114 H       
  66 H66           -7.2338     0.4406    -0.8135 H       
  67 H67           -7.2161     0.4311     0.9664 H       
  68 H68           -8.6925     2.4231     0.9918 H       
  69 H69           -8.7103     2.4327    -0.7880 H       
  70 H70          -11.0614     1.0194    -1.5203 H       
  71 H71           -9.6073     0.0290    -1.8437 H       
  72 H72          -12.0623    -1.0827    -1.1840 H       
  73 H73          -10.5027    -1.8617    -0.7552 H       
  74 H74          -11.2981    -1.5626     1.4507 H       
  75 H75          -12.3599    -0.1985     0.9798 H       
@<TRIPOS>BOND
   1    1    2 ar
   2    1   16 1
   3    1    6 ar
   4    2    3 ar
   5    2    7 1
   6    3    4 ar
   7    3   39 1
   8    4    5 ar
   9    4   40 1
  10    5    6 ar
  11    5   13 1
  12    6   41 1
  13    7    8 1
  14    7    9 1
  15    8   12 1
  16    8   42 1
  17    8   43 1
  18    9   10 1
  19    9   44 1
  20    9   45 1
  21   10   11 1
  22   10   46 1
  23   10   47 1
  24   11   12 1
  25   11   17 1
  26   12   48 1
  27   12   49 1
  28   13   14 2
  29   13   15 am
  30   15   30 1
  31   15   50 1
  32   16   24 1
  33   16   51 1
  34   17   18 ar
  35   17   22 ar
  36   18   19 ar
  37   18   23 1
  38   19   20 ar
  39   19   52 1
  40   20   21 ar
  41   20   53 1
  42   21   22 ar
  43   21   54 1
  44   22   55 1
  45   23   56 1
  46   23   57 1
  47   23   58 1
  48   24   25 1
  49   24   59 1
  50   24   60 1
  51   25   26 2
  52   25   29 1
  53   26   27 1
  54   26   61 1
  55   27   28 2
  56   27   62 1
  57   28   29 1
  58   28   63 1
  59   30   31 1
  60   30   64 1
  61   30   65 1
  62   31   32 1
  63   31   66 1
  64   31   67 1
  65   32   33 1
  66   32   68 1
  67   32   69 1
  68   33   34 am
  69   33   35 1
  70   34   38 2
  71   34   37 1
  72   35   36 1
  73   35   70 1
  74   35   71 1
  75   36   37 1
  76   36   72 1
  77   36   73 1
  78   37   74 1
  79   37   75 1

#	End of record

