#	Name: ASD02900002
#	Creating user name:	WinNT
#	Creation time:	15. 06. 2019 20:26

#	Modifying user name:	WinNT
#	Modification time:	15. 06. 2019 20:26

#	Program:	/corina/corina34_cracker 3.40 0067  02.08.2006

@<TRIPOS>MOLECULE
ASD02900002
  35   36    0    0    0
SMALL
NO_CHARGES


@<TRIPOS>ATOM
   1 C1            -0.0167     1.3837     0.0096 C.ar    
   2 C2             0.0021    -0.0041     0.0020 C.ar    
   3 C3             1.1967    -0.6906    -0.0126 C.ar    
   4 C4             2.3970     0.0119    -0.0203 C.ar    
   5 C5             2.3725     1.4187    -0.0129 C.ar    
   6 C6             1.1508     2.0939     0.0023 C.ar    
   7 N7             3.7195    -0.3711    -0.0350 N.pl3   
   8 C8             4.5243     0.7355    -0.0372 C.2     
   9 C9             3.7731     1.8479    -0.0243 C.2     
  10 C10            4.2753     3.2687    -0.0220 C.3     
  11 C11            4.3391     3.7767     1.3953 C.2     
  12 O12            4.0092     3.0559     2.3132 O.2     
  13 N13            4.7627     5.0320     1.6429 N.am    
  14 C14            4.8247     5.5258     3.0208 C.3     
  15 C15            5.8619     6.6466     3.1146 C.3     
  16 C16            7.2322     6.0882     2.8292 C.2     
  17 O17            7.3656     4.9142     2.5766 O.2     
  18 O18            8.3046     6.8951     2.8556 O.3     
  19 C19            3.4736     6.0565     3.4255 C.2     
  20 O20            2.5532     6.0254     2.6432 O.2     
  21 O21            3.2925     6.5637     4.6550 O.3     
  22 H22           -0.9617     1.9065     0.0169 H       
  23 H23           -0.9290    -0.5514     0.0080 H       
  24 H24            1.2009    -1.7706    -0.0177 H       
  25 H25            1.1284     3.1736     0.0080 H       
  26 H26            4.0338    -1.2888    -0.0423 H       
  27 H27            5.6041     0.7167    -0.0474 H       
  28 H28            5.2705     3.3031    -0.4654 H       
  29 H29            3.5973     3.8947    -0.6022 H       
  30 H30            5.0265     5.6084     0.9088 H       
  31 H31            5.1092     4.7108     3.6863 H       
  32 H32            5.6263     7.4217     2.3854 H       
  33 H33            5.8453     7.0740     4.1172 H       
  34 H34            9.1626     6.4913     2.6660 H       
  35 H35            2.4084     6.8919     4.8686 H       
@<TRIPOS>BOND
   1    1    2 ar
   2    1    6 ar
   3    1   22 1
   4    2    3 ar
   5    2   23 1
   6    3    4 ar
   7    3   24 1
   8    4    5 ar
   9    4    7 1
  10    5    6 ar
  11    5    9 1
  12    6   25 1
  13    7    8 1
  14    7   26 1
  15    8    9 2
  16    8   27 1
  17    9   10 1
  18   10   11 1
  19   10   28 1
  20   10   29 1
  21   11   12 2
  22   11   13 am
  23   13   14 1
  24   13   30 1
  25   14   15 1
  26   14   19 1
  27   14   31 1
  28   15   16 1
  29   15   32 1
  30   15   33 1
  31   16   17 2
  32   16   18 1
  33   18   34 1
  34   19   20 2
  35   19   21 1
  36   21   35 1

#	End of record

