#	Name: ASD01814056
#	Creating user name:	WinNT
#	Creation time:	15. 06. 2019 19:31

#	Modifying user name:	WinNT
#	Modification time:	15. 06. 2019 19:31

#	Program:	/corina/corina34_cracker 3.40 0067  02.08.2006

@<TRIPOS>MOLECULE
ASD01814056
  42   45    0    0    0
SMALL
NO_CHARGES


@<TRIPOS>ATOM
   1 C1             7.3399     1.2111    -0.2190 C.ar    
   2 C2             7.2565    -0.1728    -0.2200 C.ar    
   3 C3             6.0316    -0.8058    -0.1600 C.ar    
   4 C4             4.8605    -0.0528    -0.0969 C.ar    
   5 C5             4.9466     1.3499    -0.0955 C.ar    
   6 C6             6.1934     1.9775    -0.1572 C.ar    
   7 N7             3.6308    -0.6740    -0.0371 N.pl3   
   8 C8             2.4779     0.0043     0.0243 C.2     
   9 C9             2.4359     1.3839     0.0318 C.2     
  10 C10            3.7010     2.1343    -0.0284 C.2     
  11 F11            6.2764     3.3260    -0.1553 F       
  12 O12            3.7173     3.3529    -0.0242 O.2     
  13 C13            1.1498     2.0918     0.0986 C.2     
  14 O14            1.1218     3.4396     0.1053 O.3     
  15 O15            0.1112     1.4620     0.1480 O.2     
  16 C16            3.5837    -2.1382    -0.0413 C.3     
  17 C17            3.4395    -2.6321    -1.4578 C.ar    
  18 C18            4.5598    -2.7763    -2.2555 C.ar    
  19 C19            4.4309    -3.2283    -3.5543 C.ar    
  20 C20            3.1749    -3.5384    -4.0585 C.ar    
  21 C21            2.0520    -3.3929    -3.2548 C.ar    
  22 C22            2.1879    -2.9454    -1.9552 C.ar    
  23 N23            3.0407    -3.9967    -5.3759 N.pl3   
  24 F24            5.9677    -2.1552    -0.1628 F       
  25 C25            1.8961    -4.3345    -5.9994 C.2     
  26 N26            2.1908    -4.7108    -7.2180 N.2     
  27 C27            3.5111    -4.6275    -7.4105 C.2     
  28 N28            4.0730    -4.1887    -6.3086 N.2     
  29 N29            4.1814    -4.9494    -8.5912 N.pl3   
  30 H30            8.3062     1.6916    -0.2623 H       
  31 H31            8.1602    -0.7621    -0.2687 H       
  32 H32            1.5500    -0.5465     0.0691 H       
  33 H33            0.2523     3.8604     0.1503 H       
  34 H34            4.5042    -2.5326     0.3891 H       
  35 H35            2.7324    -2.4761     0.5497 H       
  36 H36            5.5365    -2.5350    -1.8628 H       
  37 H37            5.3061    -3.3400    -4.1771 H       
  38 H38            1.0737    -3.6330    -3.6443 H       
  39 H39            1.3149    -2.8324    -1.3295 H       
  40 H40            0.9063    -4.3011    -5.5686 H       
  41 H41            3.6829    -5.2641    -9.3616 H       
  42 H42            5.1458    -4.8586    -8.6417 H       
@<TRIPOS>BOND
   1    1    2 ar
   2    1    6 ar
   3    1   30 1
   4    2    3 ar
   5    2   31 1
   6    3    4 ar
   7    3   24 1
   8    4    5 ar
   9    4    7 1
  10    5    6 ar
  11    5   10 1
  12    6   11 1
  13    7    8 1
  14    7   16 1
  15    8    9 2
  16    8   32 1
  17    9   10 1
  18    9   13 1
  19   10   12 2
  20   13   14 1
  21   13   15 2
  22   14   33 1
  23   16   17 1
  24   16   34 1
  25   16   35 1
  26   17   18 ar
  27   17   22 ar
  28   18   19 ar
  29   18   36 1
  30   19   20 ar
  31   19   37 1
  32   20   21 ar
  33   20   23 1
  34   21   22 ar
  35   21   38 1
  36   22   39 1
  37   23   25 1
  38   23   28 1
  39   25   26 2
  40   25   40 1
  41   26   27 1
  42   27   28 2
  43   27   29 1
  44   29   41 1
  45   29   42 1

#	End of record

