#	Name: ASD03081366
#	Creating user name:	WinNT
#	Creation time:	15. 06. 2019 20:27

#	Modifying user name:	WinNT
#	Modification time:	15. 06. 2019 20:27

#	Program:	/corina/corina34_cracker 3.40 0067  02.08.2006

@<TRIPOS>MOLECULE
ASD03081366
  25   27    0    0    0
SMALL
NO_CHARGES


@<TRIPOS>ATOM
   1 O1            -0.0162     1.3444     0.0094 O.3     
   2 C2             0.0021    -0.0041     0.0020 C.2     
   3 N3             1.2609    -0.3804    -0.0120 N.2     
   4 N4             2.0179     0.6599    -0.0137 N.2     
   5 C5             1.2727     1.7416    -0.0007 C.2     
   6 C6             0.8550     4.2023     0.0145 C.ar    
   7 C7             1.7575     3.1373     0.0012 C.ar    
   8 C8             3.1299     3.4142    -0.0099 C.ar    
   9 C9             3.5317     4.7385    -0.0071 C.ar    
  10 C10            2.5742     5.7366     0.0064 C.ar    
  11 N11            1.2872     5.4461     0.0166 N.ar    
  12 C12           -2.4687    -0.3623     0.0246 C.ar    
  13 C13           -1.1764    -0.8943     0.0089 C.ar    
  14 C14           -1.0177    -2.2853    -0.0006 C.ar    
  15 C15           -2.1533    -3.0754     0.0060 C.ar    
  16 C16           -3.3994    -2.4720     0.0216 C.ar    
  17 N17           -3.5200    -1.1569     0.0303 N.ar    
  18 Cl18          -4.8266    -3.4603     0.0293 Cl      
  19 Cl19          -2.6907     1.3594     0.0439 Cl      
  20 H20           -0.2067     4.0045     0.0186 H       
  21 H21            3.8562     2.6150    -0.0199 H       
  22 H22            4.5820     4.9900    -0.0150 H       
  23 H23            2.8852     6.7708     0.0086 H       
  24 H24           -0.0337    -2.7303    -0.0131 H       
  25 H25           -2.0687    -4.1521    -0.0013 H       
@<TRIPOS>BOND
   1    1    2 1
   2    1    5 1
   3    2    3 2
   4    2   13 1
   5    3    4 1
   6    4    5 2
   7    5    7 1
   8    6    7 ar
   9    6   11 ar
  10    6   20 1
  11    7    8 ar
  12    8    9 ar
  13    8   21 1
  14    9   10 ar
  15    9   22 1
  16   10   11 ar
  17   10   23 1
  18   12   13 ar
  19   12   17 ar
  20   12   19 1
  21   13   14 ar
  22   14   15 ar
  23   14   24 1
  24   15   16 ar
  25   15   25 1
  26   16   17 ar
  27   16   18 1

#	End of record

