#	Name: ASD01900120
#	Creating user name:	WinNT
#	Creation time:	15. 06. 2019 19:51

#	Modifying user name:	WinNT
#	Modification time:	15. 06. 2019 19:51

#	Program:	/corina/corina34_cracker 3.40 0067  02.08.2006

@<TRIPOS>MOLECULE
ASD01900120
  59   63    0    0    0
SMALL
NO_CHARGES


@<TRIPOS>ATOM
   1 C1             3.7445     0.5214     0.8588 C.ar    
   2 C2             4.3988    -0.6963     0.7980 C.ar    
   3 C3             5.7382    -0.7567     0.4308 C.ar    
   4 C4             6.4350     0.3972     0.1287 C.ar    
   5 C5             5.7941     1.6229     0.1885 C.ar    
   6 C6             4.4371     1.6896     0.5484 C.ar    
   7 N7             6.4626     2.8124    -0.0904 N.pl3   
   8 C8             5.6977     3.9501    -0.6134 C.3     
   9 N9             4.4337     4.0875     0.1108 N.am    
  10 C10            3.7854     3.0102     0.5962 C.2     
  11 C11            3.8876     5.3625     0.3040 C.ar    
  12 C12            4.4028     6.1972     1.2870 C.ar    
  13 C13            3.8641     7.4544     1.4766 C.ar    
  14 C14            2.8083     7.8836     0.6857 C.ar    
  15 C15            2.2928     7.0501    -0.2961 C.ar    
  16 C16            2.8344     5.7950    -0.4911 C.ar    
  17 O17            2.6711     3.1270     1.0692 O.2     
  18 O18            2.2781     9.1215     0.8733 O.3     
  19 C19            6.5216     5.2304    -0.4460 C.3     
  20 C20            5.4131     3.7278    -2.1013 C.3     
  21 C21            4.6807     4.9479    -2.6641 C.3     
  22 N22            5.5087     6.1465    -2.4792 N.3     
  23 C23            5.7556     6.4069    -1.0553 C.3     
  24 C24            4.8982     7.3136    -3.1297 C.3     
  25 C25            1.2017     9.5033     0.0144 C.3     
  26 F26            0.1198     8.6382     0.2100 F       
  27 F27            0.8108    10.8134     0.3108 F       
  28 F28            1.6209     9.4319    -1.3184 F       
  29 C29            5.7194     8.5415    -2.8317 C.ar    
  30 C30            6.7665     8.8907    -3.6642 C.ar    
  31 C31            7.5210    10.0180    -3.3913 C.ar    
  32 C32            7.2255    10.7967    -2.2822 C.ar    
  33 C33            6.1769    10.4445    -1.4511 C.ar    
  34 C34            5.4213     9.3206    -1.7297 C.ar    
  35 F35            7.9611    11.8976    -2.0135 F       
  36 F36            8.5447    10.3597    -4.2040 F       
  37 O37            3.7279    -1.8403     1.0995 O.3     
  38 H38            2.7028     0.5654     1.1406 H       
  39 H39            6.2379    -1.7130     0.3817 H       
  40 H40            7.4763     0.3434    -0.1528 H       
  41 H41            7.4181     2.8876     0.0588 H       
  42 H42            5.2243     5.8630     1.9032 H       
  43 H43            4.2647     8.1037     2.2411 H       
  44 H44            1.4703     7.3846    -0.9110 H       
  45 H45            2.4362     5.1481    -1.2587 H       
  46 H46            6.6924     5.4173     0.6142 H       
  47 H47            7.4787     5.1165    -0.9550 H       
  48 H48            6.3535     3.5898    -2.6350 H       
  49 H49            4.7909     2.8413    -2.2243 H       
  50 H50            4.4900     4.7987    -3.7268 H       
  51 H51            3.7336     5.0765    -2.1400 H       
  52 H52            4.8040     6.5278    -0.5378 H       
  53 H53            6.3449     7.3178    -0.9495 H       
  54 H54            4.8635     7.1523    -4.2071 H       
  55 H55            3.8858     7.4527    -2.7504 H       
  56 H56            6.9958     8.2834    -4.5273 H       
  57 H57            5.9460    11.0498    -0.5869 H       
  58 H58            4.6002     9.0487    -1.0830 H       
  59 H59            3.2976    -2.2558     0.3397 H       
@<TRIPOS>BOND
   1    1    2 ar
   2    1    6 ar
   3    1   38 1
   4    2    3 ar
   5    2   37 1
   6    3    4 ar
   7    3   39 1
   8    4    5 ar
   9    4   40 1
  10    5    7 1
  11    5    6 ar
  12    6   10 1
  13    7    8 1
  14    7   41 1
  15    8    9 1
  16    8   20 1
  17    8   19 1
  18    9   10 am
  19    9   11 1
  20   10   17 2
  21   11   12 ar
  22   11   16 ar
  23   12   13 ar
  24   12   42 1
  25   13   14 ar
  26   13   43 1
  27   14   15 ar
  28   14   18 1
  29   15   16 ar
  30   15   44 1
  31   16   45 1
  32   18   25 1
  33   19   23 1
  34   19   46 1
  35   19   47 1
  36   20   21 1
  37   20   48 1
  38   20   49 1
  39   21   22 1
  40   21   50 1
  41   21   51 1
  42   22   23 1
  43   22   24 1
  44   23   52 1
  45   23   53 1
  46   24   29 1
  47   24   54 1
  48   24   55 1
  49   25   26 1
  50   25   27 1
  51   25   28 1
  52   29   30 ar
  53   29   34 ar
  54   30   31 ar
  55   30   56 1
  56   31   32 ar
  57   31   36 1
  58   32   33 ar
  59   32   35 1
  60   33   34 ar
  61   33   57 1
  62   34   58 1
  63   37   59 1

#	End of record

