#	Name: ASD05313217
#	Creating user name:	WinNT
#	Creation time:	15. 06. 2019 20:58

#	Modifying user name:	WinNT
#	Modification time:	15. 06. 2019 20:58

#	Program:	/corina/corina34_cracker 3.40 0067  02.08.2006

@<TRIPOS>MOLECULE
ASD05313217
  40   43    0    0    0
SMALL
NO_CHARGES


@<TRIPOS>ATOM
   1 C1             0.2209     0.5722     0.7645 C.2     
   2 C2             0.2895    -0.8304     0.2023 C.3     
   3 N3             1.2581     1.4432     0.7353 N.pl3   
   4 N4             1.5410    -0.9253    -0.5714 N.am    
   5 C5             2.7600    -0.3431     0.0105 C.3     
   6 C6             2.5743     1.1716     0.1542 C.3     
   7 N7            -0.7948     1.1420     1.3450 N.2     
   8 C8            -0.4594     2.3861     1.7116 C.2     
   9 C9             0.8335     2.5992     1.3393 C.2     
  10 C10            1.6239     3.8319     1.5477 C.ar    
  11 C11            2.7991     4.0412     0.8251 C.ar    
  12 C12            3.5315     5.1934     1.0238 C.ar    
  13 C13            3.1033     6.1399     1.9375 C.ar    
  14 C14            1.9390     5.9384     2.6571 C.ar    
  15 C15            1.1944     4.7931     2.4635 C.ar    
  16 C16            1.5673    -1.5283    -1.7765 C.2     
  17 O17            2.5835    -1.5097    -2.4434 O.2     
  18 C18            0.3609    -2.2120    -2.2871 C.ar    
  19 C19           -0.0382    -2.0338    -3.6143 C.ar    
  20 C20           -1.1669    -2.6762    -4.0841 C.ar    
  21 C21           -1.9011    -3.4935    -3.2438 C.ar    
  22 C22           -1.5111    -3.6735    -1.9284 C.ar    
  23 C23           -0.3821    -3.0434    -1.4474 C.ar    
  24 Cl24           0.8819    -1.0073    -4.6695 Cl      
  25 H25            0.2991    -1.5565     1.0152 H       
  26 H26           -0.5651    -1.0118    -0.4494 H       
  27 H27            2.9413    -0.7827     0.9913 H       
  28 H28            3.6084    -0.5458    -0.6432 H       
  29 H29            2.6431     1.6415    -0.8268 H       
  30 H30            3.3500     1.5731     0.8063 H       
  31 H31           -1.1003     3.0944     2.2156 H       
  32 H32            3.1348     3.3027     0.1121 H       
  33 H33            4.4413     5.3566     0.4652 H       
  34 H34            3.6806     7.0399     2.0899 H       
  35 H35            1.6102     6.6809     3.3691 H       
  36 H36            0.2835     4.6388     3.0229 H       
  37 H37           -1.4772    -2.5399    -5.1096 H       
  38 H38           -2.7832    -3.9933    -3.6160 H       
  39 H39           -2.0896    -4.3126    -1.2778 H       
  40 H40           -0.0765    -3.1893    -0.4219 H       
@<TRIPOS>BOND
   1    1    2 1
   2    1    3 1
   3    1    7 2
   4    2    4 1
   5    2   25 1
   6    2   26 1
   7    3    6 1
   8    3    9 1
   9    4    5 1
  10    4   16 am
  11    5    6 1
  12    5   27 1
  13    5   28 1
  14    6   29 1
  15    6   30 1
  16    7    8 1
  17    8    9 2
  18    8   31 1
  19    9   10 1
  20   10   11 ar
  21   10   15 ar
  22   11   12 ar
  23   11   32 1
  24   12   13 ar
  25   12   33 1
  26   13   14 ar
  27   13   34 1
  28   14   15 ar
  29   14   35 1
  30   15   36 1
  31   16   17 2
  32   16   18 1
  33   18   19 ar
  34   18   23 ar
  35   19   20 ar
  36   19   24 1
  37   20   21 ar
  38   20   37 1
  39   21   22 ar
  40   21   38 1
  41   22   23 ar
  42   22   39 1
  43   23   40 1

#	End of record

