#	Name: ASD02030384
#	Creating user name:	WinNT
#	Creation time:	15. 06. 2019 20:15

#	Modifying user name:	WinNT
#	Modification time:	15. 06. 2019 20:15

#	Program:	/corina/corina34_cracker 3.40 0067  02.08.2006

@<TRIPOS>MOLECULE
ASD02030384
  37   39    0    0    0
SMALL
NO_CHARGES


@<TRIPOS>ATOM
   1 C1            -0.0156     1.2964     0.0092 C.2     
   2 N2             0.0021    -0.0041     0.0020 N.2     
   3 C3             1.2884    -0.4415    -0.0126 C.ar    
   4 C4             2.1098     0.7013    -0.0143 C.ar    
   5 N5             1.2557     1.7823    -0.0004 N.pl3   
   6 C6             1.8715    -1.7071    -0.0250 C.ar    
   7 C7             3.2588    -1.8227    -0.0389 C.ar    
   8 C8             4.0616    -0.6739    -0.0399 C.ar    
   9 C9             3.4937     0.5667    -0.0283 C.ar    
  10 C10            3.8857    -3.1583    -0.0520 C.2     
  11 O11            3.1913    -4.1553    -0.0507 O.2     
  12 O12            5.2281    -3.2724    -0.0655 O.3     
  13 C13            1.6444     3.1948     0.0031 C.3     
  14 C14           -1.2626     2.1424     0.0199 C.3     
  15 C15           -1.6772     2.4214     1.4660 C.3     
  16 C16           -2.8754     3.3864     1.4940 C.3     
  17 C17           -4.0308     2.6345     2.1863 C.3     
  18 C18           -3.3224     1.5597     3.0477 C.3     
  19 C19           -2.1464     1.1167     2.1423 C.3     
  20 H20            1.2518    -2.5916    -0.0234 H       
  21 H21            5.1372    -0.7713    -0.0500 H       
  22 H22            4.1205     1.4462    -0.0295 H       
  23 H23            5.5926    -4.1680    -0.0738 H       
  24 H24            1.7504     3.5399     1.0315 H       
  25 H25            2.5940     3.3116    -0.5191 H       
  26 H26            0.8779     3.7838    -0.5006 H       
  27 H27           -1.0663     3.0855    -0.4902 H       
  28 H28           -2.0656     1.6125    -0.4925 H       
  29 H29           -0.8404     2.8490     2.0182 H       
  30 H30           -2.6203     4.2821     2.0605 H       
  31 H31           -3.1615     3.6560     0.4773 H       
  32 H32           -4.6033     3.3134     2.8183 H       
  33 H33           -4.6779     2.1642     1.4458 H       
  34 H34           -2.9525     1.9920     3.9774 H       
  35 H35           -3.9915     0.7231     3.2488 H       
  36 H36           -2.4891     0.4013     1.3947 H       
  37 H37           -1.3436     0.6879     2.7422 H       
@<TRIPOS>BOND
   1    1    2 2
   2    1    5 1
   3    1   14 1
   4    2    3 1
   5    3    4 ar
   6    3    6 ar
   7    4    5 1
   8    4    9 ar
   9    5   13 1
  10    6    7 ar
  11    6   20 1
  12    7    8 ar
  13    7   10 1
  14    8    9 ar
  15    8   21 1
  16    9   22 1
  17   10   11 2
  18   10   12 1
  19   12   23 1
  20   13   24 1
  21   13   25 1
  22   13   26 1
  23   14   15 1
  24   14   27 1
  25   14   28 1
  26   15   16 1
  27   15   19 1
  28   15   29 1
  29   16   17 1
  30   16   30 1
  31   16   31 1
  32   17   18 1
  33   17   32 1
  34   17   33 1
  35   18   19 1
  36   18   34 1
  37   18   35 1
  38   19   36 1
  39   19   37 1

#	End of record

