#	Name: ASD01918381
#	Creating user name:	WinNT
#	Creation time:	15. 06. 2019 20:11

#	Modifying user name:	WinNT
#	Modification time:	15. 06. 2019 20:11

#	Program:	/corina/corina34_cracker 3.40 0067  02.08.2006

@<TRIPOS>MOLECULE
ASD01918381
  48   50    0    0    0
SMALL
NO_CHARGES


@<TRIPOS>ATOM
   1 Cl1            0.0000     0.0000     0.0000 Cl      
   2 H2             0.0000     1.3700     0.0000 H       
   3 C3             8.8709    14.2540    14.1364 C.3     
   4 C4             8.8959    12.7246    14.1743 C.3     
   5 N5             7.5242    12.2156    14.3054 N.3     
   6 C6             6.8591    12.7855    15.4965 C.3     
   7 C7             5.9279    11.6578    16.0072 C.3     
   8 C8             6.7871    10.3949    15.7355 C.3     
   9 C9             7.5148    10.7457    14.4207 C.3     
  10 C10            9.5067    12.2004    12.9003 C.2     
  11 N11           10.7071    11.6953    12.7636 N.2     
  12 C12           10.8146    11.3624    11.4572 C.2     
  13 N13            9.6838    11.6821    10.8831 N.2     
  14 O14            8.9226    12.1584    11.6985 O.3     
  15 C15           11.9944    10.7499    10.7987 C.ar    
  16 C16           11.9514    10.4698     9.4337 C.ar    
  17 C17           13.0534     9.9000     8.8268 C.ar    
  18 C18           14.1797     9.6242     9.6152 C.ar    
  19 C19           14.1463     9.9345    10.9792 C.ar    
  20 N20           13.0785    10.4811    11.5162 N.ar    
  21 C21           15.3470     9.0334     9.0330 C.1     
  22 C22           16.3040     8.5489     8.5557 C.1     
  23 C23           17.4712     7.9580     7.9735 C.ar    
  24 C24           17.4990     7.6560     6.6094 C.ar    
  25 C25           18.6264     7.0873     6.0541 C.ar    
  26 C26           19.7291     6.8153     6.8437 C.ar    
  27 C27           19.7100     7.1113     8.1978 C.ar    
  28 F28           20.7911     6.8426     8.9622 F       
  29 C29           18.5898     7.6862     8.7657 C.ar    
  30 H30            9.8746    14.6289    13.9362 H       
  31 H31            8.1949    14.5869    13.3488 H       
  32 H32            8.5254    14.6357    15.0971 H       
  33 H33            9.4898    12.3920    15.0257 H       
  34 H34            7.5969    13.0418    16.2568 H       
  35 H35            6.2756    13.6640    15.2214 H       
  36 H36            5.7257    11.7707    17.0723 H       
  37 H37            5.0000    11.6290    15.4360 H       
  38 H38            7.5032    10.2352    16.5416 H       
  39 H39            6.1527     9.5185    15.6029 H       
  40 H40            6.9825    10.3108    13.5748 H       
  41 H41            8.5374    10.3696    14.4512 H       
  42 H42           11.0663    10.6956     8.8575 H       
  43 H43           13.0476     9.6721     7.7712 H       
  44 H44           15.0080     9.7265    11.5961 H       
  45 H45           16.6391     7.8671     5.9910 H       
  46 H46           18.6481     6.8534     5.0000 H       
  47 H47           20.6089     6.3700     6.4032 H       
  48 H48           18.5770     7.9212     9.8198 H       
@<TRIPOS>BOND
   1    1    2 1
   2    3    4 1
   3    3   30 1
   4    3   31 1
   5    3   32 1
   6    4    5 1
   7    4   10 1
   8    4   33 1
   9    5    9 1
  10    5    6 1
  11    6    7 1
  12    6   34 1
  13    6   35 1
  14    7    8 1
  15    7   36 1
  16    7   37 1
  17    8    9 1
  18    8   38 1
  19    8   39 1
  20    9   40 1
  21    9   41 1
  22   10   14 1
  23   10   11 2
  24   11   12 1
  25   12   13 2
  26   12   15 1
  27   13   14 1
  28   15   20 ar
  29   15   16 ar
  30   16   17 ar
  31   16   42 1
  32   17   18 ar
  33   17   43 1
  34   18   19 ar
  35   18   21 1
  36   19   20 ar
  37   19   44 1
  38   21   22 3
  39   22   23 1
  40   23   29 ar
  41   23   24 ar
  42   24   25 ar
  43   24   45 1
  44   25   26 ar
  45   25   46 1
  46   26   27 ar
  47   26   47 1
  48   27   28 1
  49   27   29 ar
  50   29   48 1

#	End of record

