#	Name: ASD01812492
#	Creating user name:	WinNT
#	Creation time:	15. 06. 2019 19:28

#	Modifying user name:	WinNT
#	Modification time:	15. 06. 2019 19:28

#	Program:	/corina/corina34_cracker 3.40 0067  02.08.2006

@<TRIPOS>MOLECULE
ASD01812492
  66   71    0    0    0
SMALL
NO_CHARGES


@<TRIPOS>ATOM
   1 C1            -0.0003    -0.3092     2.4694 C.3     
   2 N2             0.0108    -0.7819     1.0828 N.pl3   
   3 C3             0.0207    -2.0791     0.6806 C.2     
   4 C4             0.0282    -2.0870    -0.6769 C.2     
   5 C5             0.0226    -0.7544    -1.1144 C.2     
   6 N6             0.0069     0.0239    -0.0629 N.2     
   7 N7             0.0399    -3.2294    -1.4992 N.am    
   8 C8             0.1674    -4.5406    -0.8697 C.3     
   9 C9            -0.2847    -5.6340    -1.8395 C.3     
  10 N10            0.3985    -5.4349    -3.1280 N.3     
  11 C11            0.2346    -6.6076    -3.9974 C.3     
  12 C12            1.1400    -6.4755    -5.1949 C.ar    
  13 C13            0.6276    -6.0442    -6.3722 C.ar    
  14 C14            1.4356    -5.9071    -7.5116 C.ar    
  15 C15            0.8911    -5.4405    -8.7932 C.2     
  16 O16           -0.2866    -5.1546    -8.9134 O.2     
  17 N17            1.7484    -5.3400    -9.8354 N.am    
  18 C18            3.0573    -5.6622    -9.6838 C.2     
  19 N19            3.5612    -6.0774    -8.5584 N.2     
  20 C20            2.8067    -6.2166    -7.4554 C.ar    
  21 C21            3.3656    -6.6819    -6.1895 C.ar    
  22 C22            4.7198    -7.0069    -6.0614 C.ar    
  23 C23            5.2004    -7.4376    -4.8592 C.ar    
  24 C24            4.3594    -7.5578    -3.7576 C.ar    
  25 C25            3.0348    -7.2492    -3.8491 C.ar    
  26 C26            2.5076    -6.7975    -5.0687 C.ar    
  27 C27            1.2591    -4.8801   -11.1375 C.3     
  28 H28            0.1917    -4.6697   -11.0708 H       
  29 C29            1.4999    -5.9681   -12.1860 C.3     
  30 C30            0.9889    -5.4878   -13.5458 C.3     
  31 C31            1.7353    -4.2151   -13.9507 C.3     
  32 C32            1.4946    -3.1272   -12.9022 C.3     
  33 C33            2.0056    -3.6075   -11.5424 C.3     
  34 H34            3.0730    -3.8179   -11.6091 H       
  35 O35            1.7807    -2.5914   -10.5631 O.3     
  36 C36           -0.1014    -4.2192    -3.7839 C.3     
  37 C37           -0.0717    -3.0658    -2.8216 C.2     
  38 O38           -0.1474    -1.9386    -3.2634 O.2     
  39 H39           -1.0307    -0.2028     2.8088 H       
  40 H40            0.5183    -1.0289     3.1028 H       
  41 H41            0.5032     0.6557     2.5284 H       
  42 H42            0.0227    -2.9466     1.3238 H       
  43 H43            0.0267    -0.4268    -2.1435 H       
  44 H44            1.2083    -4.7097    -0.5939 H       
  45 H45           -0.4523    -4.5733     0.0265 H       
  46 H46           -0.0242    -6.6120    -1.4349 H       
  47 H47           -1.3632    -5.5713    -1.9841 H       
  48 H48            0.4942    -7.5097    -3.4435 H       
  49 H49           -0.8013    -6.6711    -4.3304 H       
  50 H50           -0.4229    -5.8016    -6.4354 H       
  51 H51            3.7121    -5.5700   -10.5378 H       
  52 H52            5.3819    -6.9177    -6.9100 H       
  53 H53            6.2463    -7.6885    -4.7618 H       
  54 H54            4.7618    -7.9012    -2.8161 H       
  55 H55            2.3944    -7.3477    -2.9851 H       
  56 H56            2.5673    -6.1785   -12.2527 H       
  57 H57            0.9681    -6.8747   -11.8976 H       
  58 H58            1.1604    -6.2629   -14.2928 H       
  59 H59           -0.0785    -5.2773   -13.4792 H       
  60 H60            2.8027    -4.4256   -14.0174 H       
  61 H61            1.3713    -3.8730   -14.9195 H       
  62 H62            2.0264    -2.2205   -13.1907 H       
  63 H63            0.4272    -2.9167   -12.8356 H       
  64 H64            2.2251    -1.7544   -10.7556 H       
  65 H65            0.5243    -3.9902    -4.6466 H       
  66 H66           -1.1267    -4.3826    -4.1157 H       
@<TRIPOS>BOND
   1    1    2 1
   2    1   39 1
   3    1   40 1
   4    1   41 1
   5    2    6 1
   6    2    3 1
   7    3    4 2
   8    3   42 1
   9    4    5 1
  10    4    7 1
  11    5    6 2
  12    5   43 1
  13    7   37 am
  14    7    8 1
  15    8    9 1
  16    8   44 1
  17    8   45 1
  18    9   10 1
  19    9   46 1
  20    9   47 1
  21   10   11 1
  22   10   36 1
  23   11   12 1
  24   11   48 1
  25   11   49 1
  26   12   26 ar
  27   12   13 ar
  28   13   14 ar
  29   13   50 1
  30   14   20 ar
  31   14   15 1
  32   15   16 2
  33   15   17 am
  34   17   18 1
  35   17   27 1
  36   18   19 2
  37   18   51 1
  38   19   20 1
  39   20   21 ar
  40   21   26 ar
  41   21   22 ar
  42   22   23 ar
  43   22   52 1
  44   23   24 ar
  45   23   53 1
  46   24   25 ar
  47   24   54 1
  48   25   26 ar
  49   25   55 1
  50   27   28 1
  51   27   33 1
  52   27   29 1
  53   29   30 1
  54   29   56 1
  55   29   57 1
  56   30   31 1
  57   30   58 1
  58   30   59 1
  59   31   32 1
  60   31   60 1
  61   31   61 1
  62   32   33 1
  63   32   62 1
  64   32   63 1
  65   33   34 1
  66   33   35 1
  67   35   64 1
  68   36   37 1
  69   36   65 1
  70   36   66 1
  71   37   38 2

#	End of record

