#	Name: ASD04590156
#	Creating user name:	WinNT
#	Creation time:	15. 06. 2019 20:50

#	Modifying user name:	WinNT
#	Modification time:	15. 06. 2019 20:50

#	Program:	/corina/corina34_cracker 3.40 0067  02.08.2006

@<TRIPOS>MOLECULE
ASD04590156
  49   51    0    0    0
SMALL
NO_CHARGES


@<TRIPOS>ATOM
   1 N1            -0.0156     1.2816     0.0329 N.pl3   
   2 N2             0.0015    -0.0026     0.0226 N.2     
   3 C3             1.2448    -0.4428     0.0012 C.2     
   4 C4             2.0899     0.6971    -0.0020 C.2     
   5 C5             1.2521     1.7679     0.0185 C.2     
   6 C6             1.6753    -1.8535    -0.0160 C.2     
   7 N7             0.7558    -2.8388    -0.0110 N.am    
   8 O8             2.8598    -2.1275    -0.0348 O.2     
   9 N9             3.4922     0.7154    -0.0213 N.am    
  10 C10            4.1509     1.8912    -0.0217 C.2     
  11 C11            1.1834    -4.2399    -0.0281 C.3     
  12 C12            5.6190     1.9121     0.0733 C.2     
  13 O13            3.5316     2.9353    -0.1006 O.2     
  14 C14            6.4546     0.8256     0.2663 C.2     
  15 N15            6.4310     3.0069    -0.0172 N.pl3   
  16 N16            7.6571     2.6463     0.1113 N.2     
  17 C17            7.7481     1.3524     0.2849 C.2     
  18 C18            5.9733     4.3823    -0.2293 C.3     
  19 C19            9.0223     0.5697     0.4720 C.3     
  20 C20            9.3483    -0.1894    -0.8157 C.3     
  21 C21           10.1669     1.5300     0.8017 C.3     
  22 C22            8.8452    -0.4259     1.6202 C.3     
  23 C23           -0.0473    -5.1489    -0.0182 C.3     
  24 C24            0.1858    -6.6551    -0.1517 C.3     
  25 C25           -0.2404    -6.0633     1.1932 C.3     
  26 H26           -0.8185     1.8258     0.0450 H       
  27 H27            1.5405     2.8087     0.0221 H       
  28 H28           -0.1892    -2.6203     0.0039 H       
  29 H29            3.9880    -0.1182    -0.0345 H       
  30 H30            1.7684    -4.4303    -0.9279 H       
  31 H31            1.7932    -4.4445     0.8518 H       
  32 H32            6.1675    -0.2094     0.3790 H       
  33 H33            5.7055     4.8279     0.7287 H       
  34 H34            6.7718     4.9639    -0.6900 H       
  35 H35            5.1021     4.3783    -0.8844 H       
  36 H36            9.4744     0.5199    -1.6336 H       
  37 H37           10.2699    -0.7555    -0.6803 H       
  38 H38            8.5329    -0.8736    -1.0505 H       
  39 H39            9.9346     2.0709     1.7191 H       
  40 H40           11.0885     0.9640     0.9370 H       
  41 H41           10.2930     2.2394    -0.0163 H       
  42 H42            8.0298    -1.1100     1.3853 H       
  43 H43            9.7668    -0.9920     1.7555 H       
  44 H44            8.6129     0.1149     2.5376 H       
  45 H45           -0.9414    -4.7348    -0.4842 H       
  46 H46           -0.5551    -7.2320    -0.7052 H       
  47 H47            1.2159    -6.9985    -0.2467 H       
  48 H48            0.5093    -6.0173     1.9831 H       
  49 H49           -1.2618    -6.2508     1.5246 H       
@<TRIPOS>BOND
   1    1    2 1
   2    1    5 1
   3    1   26 1
   4    2    3 2
   5    3    4 1
   6    3    6 1
   7    4    5 2
   8    4    9 1
   9    5   27 1
  10    6    7 am
  11    6    8 2
  12    7   11 1
  13    7   28 1
  14    9   10 am
  15    9   29 1
  16   10   12 1
  17   10   13 2
  18   11   23 1
  19   11   30 1
  20   11   31 1
  21   12   14 2
  22   12   15 1
  23   14   17 1
  24   14   32 1
  25   15   16 1
  26   15   18 1
  27   16   17 2
  28   17   19 1
  29   18   33 1
  30   18   34 1
  31   18   35 1
  32   19   20 1
  33   19   21 1
  34   19   22 1
  35   20   36 1
  36   20   37 1
  37   20   38 1
  38   21   39 1
  39   21   40 1
  40   21   41 1
  41   22   42 1
  42   22   43 1
  43   22   44 1
  44   23   24 1
  45   23   25 1
  46   23   45 1
  47   24   25 1
  48   24   46 1
  49   24   47 1
  50   25   48 1
  51   25   49 1

#	End of record

