#	Name: ASD09750016
#	Creating user name:	WinNT
#	Creation time:	15. 06. 2019 21:23

#	Modifying user name:	WinNT
#	Modification time:	15. 06. 2019 21:23

#	Program:	/corina/corina34_cracker 3.40 0067  02.08.2006

@<TRIPOS>MOLECULE
ASD09750016
  88   91    0    0    0
SMALL
NO_CHARGES


@<TRIPOS>ATOM
   1 C1             0.0897     0.8512     2.3581 C.ar    
   2 C2             0.1218    -0.5295     2.2672 C.ar    
   3 C3             1.3248    -1.1864     2.1172 C.ar    
   4 C4             2.5145    -0.4538     2.0567 C.ar    
   5 C5             2.4737     0.9411     2.1488 C.ar    
   6 C6             1.2628     1.5833     2.2989 C.ar    
   7 C7             3.8028    -1.1471     1.8973 C.2     
   8 C8             5.0825    -0.3538     1.8324 C.3     
   9 O9             3.8346    -2.3566     1.8181 O.2     
  10 C10            6.2665    -1.3085     1.6659 C.3     
  11 C11            7.5461    -0.5152     1.6011 C.2     
  12 N12            8.7259    -1.1501     1.4551 N.am    
  13 O13            7.5143     0.6946     1.6803 O.2     
  14 C14            9.9819    -0.3905     1.3903 C.3     
  15 C15           10.7394    -0.7973     0.1224 C.3     
  16 C16           10.9223    -2.3167     0.1077 C.3     
  17 C17            9.5516    -2.9971     0.0907 C.3     
  18 C18            8.7812    -2.6155     1.3639 C.3     
  19 C19           11.7087    -2.7233    -1.1402 C.3     
  20 C20           11.9997    -4.2247    -1.0928 C.3     
  21 C21           12.7860    -4.6313    -2.3407 C.3     
  22 C22           13.0770    -6.1327    -2.2933 C.3     
  23 C23           13.7535    -6.5641    -3.5974 C.3     
  24 C24           14.0970    -8.0534    -3.5198 C.3     
  25 N25           14.9926    -8.2918    -2.3807 N.3     
  26 C26           14.3468    -7.9291    -1.1126 C.3     
  27 C27           14.0108    -6.4361    -1.1184 C.3     
  28 C28           15.4275    -9.6061    -2.3579 C.ar    
  29 N29           15.0184   -10.4465    -3.2985 N.ar    
  30 C30           15.4060   -11.7047    -3.3167 C.ar    
  31 C31           16.2681   -12.1950    -2.3348 C.ar    
  32 C32           16.7169   -11.3273    -1.3270 C.ar    
  33 C33           16.2939   -10.0259    -1.3498 C.ar    
  34 C34           16.7011   -13.6053    -2.3555 C.2     
  35 N35           16.2639   -14.4302    -3.3275 N.am    
  36 C36           16.6938   -15.8306    -3.3480 C.3     
  37 C37           15.6531   -16.6728    -4.0886 C.3     
  38 O38           15.6119   -16.2798    -5.4618 O.3     
  39 O39           17.4524   -14.0233    -1.4957 O.2     
  40 C40           18.0212   -15.9382    -4.0534 C.2     
  41 N41           18.8642   -16.9459    -3.7529 N.am    
  42 C42           16.0320   -18.1520    -3.9925 C.3     
  43 O43           18.3309   -15.1180    -4.8914 O.2     
  44 H44           -0.8560     1.3602     2.4713 H       
  45 H45           -0.7978    -1.0939     2.3141 H       
  46 H46            1.3483    -2.2639     2.0472 H       
  47 H47            3.3882     1.5137     2.1032 H       
  48 H48            1.2295     2.6604     2.3699 H       
  49 H49            5.0441     0.3289     0.9836 H       
  50 H50            5.2029     0.2173     2.7530 H       
  51 H51            6.3048    -1.9912     2.5147 H       
  52 H52            6.1460    -1.8796     0.7454 H       
  53 H53            9.7622     0.6767     1.3581 H       
  54 H54           10.5899    -0.6142     2.2668 H       
  55 H55           10.1704    -0.4909    -0.7554 H       
  56 H56           11.7159    -0.3132     0.1108 H       
  57 H57           11.4698    -2.6251     0.9983 H       
  58 H58            8.9938    -2.6699    -0.7867 H       
  59 H59            9.6827    -4.0786     0.0567 H       
  60 H60            9.2927    -3.0222     2.2363 H       
  61 H61            7.7686    -3.0156     1.3120 H       
  62 H62           11.1219    -2.4948    -2.0299 H       
  63 H63           12.6484    -2.1720    -1.1731 H       
  64 H64           12.5864    -4.4532    -0.2031 H       
  65 H65           11.0600    -4.7760    -1.0598 H       
  66 H66           12.1993    -4.4028    -3.2304 H       
  67 H67           13.7257    -4.0800    -2.3737 H       
  68 H68           12.1432    -6.6809    -2.1687 H       
  69 H69           13.0764    -6.3900    -4.4336 H       
  70 H70           14.6669    -5.9871    -3.7418 H       
  71 H71           13.1818    -8.6309    -3.3893 H       
  72 H72           14.5918    -8.3606    -4.4412 H       
  73 H73           13.4305    -8.5072    -0.9934 H       
  74 H74           15.0230    -8.1460    -0.2857 H       
  75 H75           14.9283    -5.8570    -1.2238 H       
  76 H76           13.5175    -6.1705    -0.1835 H       
  77 H77           15.0538   -12.3626    -4.0974 H       
  78 H78           17.3845   -11.6775    -0.5536 H       
  79 H79           16.6211    -9.3330    -0.5888 H       
  80 H80           15.6645   -14.0968    -4.0134 H       
  81 H81           16.7951   -16.1946    -2.3256 H       
  82 H82           14.6730   -16.5187    -3.6370 H       
  83 H83           16.4520   -16.3899    -5.9278 H       
  84 H84           18.5878   -17.6420    -3.1365 H       
  85 H85           19.7474   -16.9751    -4.1531 H       
  86 H86           16.1615   -18.4267    -2.9457 H       
  87 H87           15.2407   -18.7591    -4.4322 H       
  88 H88           16.9638   -18.3241    -4.5313 H       
@<TRIPOS>BOND
   1    1    2 ar
   2    1    6 ar
   3    1   44 1
   4    2    3 ar
   5    2   45 1
   6    3    4 ar
   7    3   46 1
   8    4    5 ar
   9    4    7 1
  10    5    6 ar
  11    5   47 1
  12    6   48 1
  13    7    8 1
  14    7    9 2
  15    8   10 1
  16    8   49 1
  17    8   50 1
  18   10   11 1
  19   10   51 1
  20   10   52 1
  21   11   12 am
  22   11   13 2
  23   12   14 1
  24   12   18 1
  25   14   15 1
  26   14   53 1
  27   14   54 1
  28   15   16 1
  29   15   55 1
  30   15   56 1
  31   16   17 1
  32   16   19 1
  33   16   57 1
  34   17   18 1
  35   17   58 1
  36   17   59 1
  37   18   60 1
  38   18   61 1
  39   19   20 1
  40   19   62 1
  41   19   63 1
  42   20   21 1
  43   20   64 1
  44   20   65 1
  45   21   22 1
  46   21   66 1
  47   21   67 1
  48   22   23 1
  49   22   27 1
  50   22   68 1
  51   23   24 1
  52   23   69 1
  53   23   70 1
  54   24   25 1
  55   24   71 1
  56   24   72 1
  57   25   26 1
  58   25   28 1
  59   26   27 1
  60   26   73 1
  61   26   74 1
  62   27   75 1
  63   27   76 1
  64   28   29 ar
  65   28   33 ar
  66   29   30 ar
  67   30   31 ar
  68   30   77 1
  69   31   32 ar
  70   31   34 1
  71   32   33 ar
  72   32   78 1
  73   33   79 1
  74   34   35 am
  75   34   39 2
  76   35   36 1
  77   35   80 1
  78   36   37 1
  79   36   40 1
  80   36   81 1
  81   37   38 1
  82   37   42 1
  83   37   82 1
  84   38   83 1
  85   40   41 am
  86   40   43 2
  87   41   84 1
  88   41   85 1
  89   42   86 1
  90   42   87 1
  91   42   88 1

#	End of record

