#	Name: ASD01917754
#	Creating user name:	WinNT
#	Creation time:	15. 06. 2019 20:09

#	Modifying user name:	WinNT
#	Modification time:	15. 06. 2019 20:09

#	Program:	/corina/corina34_cracker 3.40 0067  02.08.2006

@<TRIPOS>MOLECULE
ASD01917754
  37   40    0    0    0
SMALL
NO_CHARGES


@<TRIPOS>ATOM
   1 N1             4.8222    -0.4106    -2.1398 N.ar    
   2 C2             5.2891     0.2866    -3.1570 C.ar    
   3 C3             5.1763     1.6664    -3.1836 C.ar    
   4 C4             4.5621     2.3155    -2.1220 C.ar    
   5 C5             4.0815     1.5473    -1.0669 C.ar    
   6 C6             4.2327     0.1684    -1.1130 C.ar    
   7 F7             5.6586     2.3719    -4.2300 F       
   8 O8             3.4732     2.1385    -0.0053 O.3     
   9 C9             3.4534     3.4977     0.0438 C.2     
  10 N10            2.2023     5.5114    -0.0226 N.pl3   
  11 C11            2.2712     4.1515    -0.0661 C.2     
  12 C12            4.6555     4.1991     0.2131 C.2     
  13 C13            4.6320     5.5870     0.2629 C.2     
  14 C14            3.3401     6.2638     0.1351 C.2     
  15 C15            5.8738     6.3574     0.4399 C.2     
  16 N16            5.8309     7.7037     0.4858 N.am    
  17 C17            6.9887     8.4286     0.7586 C.ar    
  18 N18            8.1481     7.7972     0.8645 N.ar    
  19 C19            6.9170     9.8079     0.9113 C.ar    
  20 C20            8.0746    10.5178     1.1822 C.ar    
  21 C21            9.2686     9.8209     1.2915 C.ar    
  22 C22            9.2688     8.4467     1.1221 C.ar    
  23 O23            6.9387     5.7790     0.5448 O.2     
  24 C24            1.1776     6.4046    -0.1053 C.2     
  25 N25            1.6926     7.6026    -0.0098 N.2     
  26 N26            2.9689     7.5287     0.1389 N.2     
  27 F27           10.4292     7.7621     1.2221 F       
  28 H28            5.7659    -0.2251    -3.9799 H       
  29 H29            4.4601     3.3907    -2.1150 H       
  30 H30            3.8629    -0.4369    -0.2986 H       
  31 H31            1.3627     3.5812    -0.1916 H       
  32 H32            5.5902     3.6657     0.3042 H       
  33 H33            4.9937     8.1679     0.3289 H       
  34 H34            5.9705    10.3198     0.8195 H       
  35 H35            8.0482    11.5904     1.3054 H       
  36 H36           10.1892    10.3451     1.5018 H       
  37 H37            0.1319     6.1671    -0.2336 H       
@<TRIPOS>BOND
   1    1    2 ar
   2    1    6 ar
   3    2    3 ar
   4    2   28 1
   5    3    4 ar
   6    3    7 1
   7    4    5 ar
   8    4   29 1
   9    5    6 ar
  10    5    8 1
  11    6   30 1
  12    8    9 1
  13    9   12 1
  14    9   11 2
  15   10   11 1
  16   10   24 1
  17   10   14 1
  18   11   31 1
  19   12   13 2
  20   12   32 1
  21   13   14 1
  22   13   15 1
  23   14   26 2
  24   15   16 am
  25   15   23 2
  26   16   17 1
  27   16   33 1
  28   17   19 ar
  29   17   18 ar
  30   18   22 ar
  31   19   20 ar
  32   19   34 1
  33   20   21 ar
  34   20   35 1
  35   21   22 ar
  36   21   36 1
  37   22   27 1
  38   24   25 2
  39   24   37 1
  40   25   26 1

#	End of record

