#	Name: ASD03091206
#	Creating user name:	WinNT
#	Creation time:	15. 06. 2019 20:30

#	Modifying user name:	WinNT
#	Modification time:	15. 06. 2019 20:30

#	Program:	/corina/corina34_cracker 3.40 0067  02.08.2006

@<TRIPOS>MOLECULE
ASD03091206
  52   56    0    0    0
SMALL
NO_CHARGES


@<TRIPOS>ATOM
   1 C1            -2.2361     3.6485     1.5308 C.1     
   2 C2            -1.1173     3.2209     0.7460 C.ar    
   3 C3             0.0692     3.9524     0.7641 C.ar    
   4 C4             1.1529     3.5288    -0.0021 C.ar    
   5 C5             1.0442     2.3753    -0.7828 C.ar    
   6 C6            -0.1338     1.6554    -0.7962 C.ar    
   7 C7            -1.2103     2.0663    -0.0351 C.ar    
   8 N8            -3.1237     3.9878     2.1534 N.1     
   9 N9             3.5444     3.6424     0.0698 N.2     
  10 C10            2.4149     4.2985     0.0105 C.2     
  11 N11            2.3463     5.6646    -0.0408 N.am    
  12 C12            3.4775     6.4078    -0.0318 C.2     
  13 C13            4.7597     5.6909     0.0344 C.ar    
  14 C14            5.9780     6.3660     0.0490 C.ar    
  15 C15            7.1557     5.6403     0.1127 C.ar    
  16 C16            7.1244     4.2465     0.1619 C.ar    
  17 C17            5.9381     3.5711     0.1483 C.ar    
  18 C18            4.7335     4.2784     0.0844 C.ar    
  19 O19            3.4350     7.6235    -0.0773 O.2     
  20 N20            8.3831     6.3083     0.1274 N.3     
  21 C21            8.4232     7.3244     1.2099 C.3     
  22 C22            9.5394     8.3025     0.7882 C.3     
  23 C23            9.6406     8.1502    -0.7535 C.3     
  24 C24            8.5761     7.0945    -1.1177 C.3     
  25 N25            9.4551    10.4793    -0.2140 N.3     
  26 C26            9.0458     9.7471     1.0116 C.3     
  27 C27            9.1987     9.5173    -1.3160 C.3     
  28 C28            8.6596    11.7021    -0.3870 C.3     
  29 C29            1.0409     6.3262    -0.1063 C.3     
  30 H30            0.1479     4.8436     1.3691 H       
  31 H31            1.8835     2.0462    -1.3774 H       
  32 H32           -0.2124     0.7647    -1.4018 H       
  33 H33           -2.1275     1.4962    -0.0470 H       
  34 H34            6.0039     7.4450     0.0106 H       
  35 H35            8.0512     3.6943     0.2110 H       
  36 H36            5.9300     2.4918     0.1866 H       
  37 H37            7.4679     7.8448     1.2778 H       
  38 H38            8.6694     6.8550     2.1623 H       
  39 H39           10.4841     8.0957     1.2909 H       
  40 H40           10.6399     7.8616    -1.0796 H       
  41 H41            8.9376     6.4519    -1.9204 H       
  42 H42            7.6443     7.5795    -1.4088 H       
  43 H43            7.9614     9.7653     1.1206 H       
  44 H44            9.5240    10.1801     1.8902 H       
  45 H45            9.7922     9.7770    -2.1926 H       
  46 H46            8.1379     9.5001    -1.5660 H       
  47 H47            8.8038    12.3543     0.4744 H       
  48 H48            8.9798    12.2189    -1.2917 H       
  49 H49            7.6049    11.4404    -0.4720 H       
  50 H50            0.6508     6.4609     0.9026 H       
  51 H51            1.1501     7.2987    -0.5864 H       
  52 H52            0.3505     5.7114    -0.6837 H       
@<TRIPOS>BOND
   1    1    2 1
   2    1    8 3
   3    2    3 ar
   4    2    7 ar
   5    3    4 ar
   6    3   30 1
   7    4    5 ar
   8    4   10 1
   9    5    6 ar
  10    5   31 1
  11    6    7 ar
  12    6   32 1
  13    7   33 1
  14    9   10 2
  15    9   18 1
  16   10   11 1
  17   11   12 am
  18   11   29 1
  19   12   13 1
  20   12   19 2
  21   13   14 ar
  22   13   18 ar
  23   14   15 ar
  24   14   34 1
  25   15   16 ar
  26   15   20 1
  27   16   17 ar
  28   16   35 1
  29   17   18 ar
  30   17   36 1
  31   20   21 1
  32   20   24 1
  33   21   22 1
  34   21   37 1
  35   21   38 1
  36   22   23 1
  37   22   26 1
  38   22   39 1
  39   23   24 1
  40   23   27 1
  41   23   40 1
  42   24   41 1
  43   24   42 1
  44   25   26 1
  45   25   27 1
  46   25   28 1
  47   26   43 1
  48   26   44 1
  49   27   45 1
  50   27   46 1
  51   28   47 1
  52   28   48 1
  53   28   49 1
  54   29   50 1
  55   29   51 1
  56   29   52 1

#	End of record

