#	Name: ASD01810093
#	Creating user name:	WinNT
#	Creation time:	15. 06. 2019 19:23

#	Modifying user name:	WinNT
#	Modification time:	15. 06. 2019 19:23

#	Program:	/corina/corina34_cracker 3.40 0067  02.08.2006

@<TRIPOS>MOLECULE
ASD01810093
  61   65    0    0    0
SMALL
NO_CHARGES


@<TRIPOS>ATOM
   1 C1             0.0341     1.2996    -0.1496 C.ar    
   2 C2             0.0659    -0.0839    -0.1641 C.ar    
   3 C3             1.2746    -0.7530    -0.1647 C.ar    
   4 C4             2.4604    -0.0353    -0.1506 C.ar    
   5 C5             2.4284     1.3609    -0.1359 C.ar    
   6 C6             1.2107     2.0234    -0.1355 C.ar    
   7 N7             3.8028    -0.4071    -0.1472 N.am    
   8 C8             4.5526     0.7111    -0.1313 C.2     
   9 N9             3.7522     1.7937    -0.1241 N.am    
  10 O10            5.7691     0.7390    -0.1247 O.2     
  11 C11            4.1978     3.1892    -0.1078 C.3     
  12 C12            5.0344     3.4446     1.1490 C.3     
  13 C13            5.5475     4.8862     1.1301 C.3     
  14 N14            6.3611     5.1018    -0.0732 N.3     
  15 C15            5.5665     4.9085    -1.2930 C.3     
  16 C16            5.0539     3.4675    -1.3464 C.3     
  17 C17            6.9841     6.4320    -0.0561 C.3     
  18 C18            7.9196     6.5724    -1.2592 C.3     
  19 C19            8.5937     7.9474    -1.2191 C.3     
  20 N20            7.5534     8.9819    -1.1396 N.am    
  21 C21            6.5470     8.8913    -0.0730 C.3     
  22 C22            5.8958     7.5057    -0.1260 C.3     
  23 C23            7.5232     9.9950    -2.0280 C.2     
  24 O24            8.4045    10.1018    -2.8583 O.2     
  25 C25            6.4180    10.9765    -1.9926 C.ar    
  26 C26            5.6462    11.2042    -3.1328 C.ar    
  27 C27            4.6160    12.1212    -3.0929 C.ar    
  28 C28            4.3478    12.8145    -1.9262 C.ar    
  29 C29            5.1093    12.5934    -0.7922 C.ar    
  30 C30            6.1384    11.6752    -0.8169 C.ar    
  31 C31            5.9377    10.4507    -4.4049 C.3     
  32 F32            5.0372    10.8481    -5.3991 F       
  33 F33            7.2443    10.7269    -4.8217 F       
  34 F34            5.8021     9.0774    -4.1749 F       
  35 H35           -0.9146     1.8157    -0.1538 H       
  36 H36           -0.8581    -0.6429    -0.1748 H       
  37 H37            1.2955    -1.8327    -0.1757 H       
  38 H38            1.1820     3.1030    -0.1245 H       
  39 H39            4.1399    -1.3166    -0.1546 H       
  40 H40            3.3300     3.8487    -0.1080 H       
  41 H41            4.4177     3.2894     2.0343 H       
  42 H42            5.8802     2.7574     1.1690 H       
  43 H43            4.7011     5.5729     1.1241 H       
  44 H44            6.1554     5.0670     2.0166 H       
  45 H45            4.7200     5.5951    -1.2876 H       
  46 H46            6.1882     5.1054    -2.1664 H       
  47 H47            5.9001     2.7807    -1.3657 H       
  48 H48            4.4513     3.3287    -2.2440 H       
  49 H49            7.5554     6.5536     0.8642 H       
  50 H50            8.6805     5.7929    -1.2213 H       
  51 H51            7.3447     6.4757    -2.1802 H       
  52 H52            9.2406     8.0118    -0.3442 H       
  53 H53            9.1839     8.0915    -2.1241 H       
  54 H54            7.0271     9.0327     0.8953 H       
  55 H55            5.7868     9.6582    -0.2218 H       
  56 H56            5.3400     7.4003    -1.0577 H       
  57 H57            5.2164     7.3905     0.7185 H       
  58 H58            4.0180    12.2984    -3.9746 H       
  59 H59            3.5407    13.5317    -1.9005 H       
  60 H60            4.8947    13.1379     0.1155 H       
  61 H61            6.7318    11.5033     0.0689 H       
@<TRIPOS>BOND
   1    1    2 ar
   2    1    6 ar
   3    1   35 1
   4    2    3 ar
   5    2   36 1
   6    3    4 ar
   7    3   37 1
   8    4    5 ar
   9    4    7 1
  10    5    6 ar
  11    5    9 1
  12    6   38 1
  13    7    8 am
  14    7   39 1
  15    8    9 am
  16    8   10 2
  17    9   11 1
  18   11   12 1
  19   11   16 1
  20   11   40 1
  21   12   13 1
  22   12   41 1
  23   12   42 1
  24   13   14 1
  25   13   43 1
  26   13   44 1
  27   14   15 1
  28   14   17 1
  29   15   16 1
  30   15   45 1
  31   15   46 1
  32   16   47 1
  33   16   48 1
  34   17   18 1
  35   17   22 1
  36   17   49 1
  37   18   19 1
  38   18   50 1
  39   18   51 1
  40   19   20 1
  41   19   52 1
  42   19   53 1
  43   20   21 1
  44   20   23 am
  45   21   22 1
  46   21   54 1
  47   21   55 1
  48   22   56 1
  49   22   57 1
  50   23   24 2
  51   23   25 1
  52   25   26 ar
  53   25   30 ar
  54   26   27 ar
  55   26   31 1
  56   27   28 ar
  57   27   58 1
  58   28   29 ar
  59   28   59 1
  60   29   30 ar
  61   29   60 1
  62   30   61 1
  63   31   32 1
  64   31   33 1
  65   31   34 1

#	End of record

