#	Name: ASD01850072
#	Creating user name:	WinNT
#	Creation time:	15. 06. 2019 19:38

#	Modifying user name:	WinNT
#	Modification time:	15. 06. 2019 19:38

#	Program:	/corina/corina34_cracker 3.40 0067  02.08.2006

@<TRIPOS>MOLECULE
ASD01850072
  59   62    0    0    0
SMALL
NO_CHARGES


@<TRIPOS>ATOM
   1 C1             6.6082     6.2822    -0.7563 C.ar    
   2 C2             7.4762     6.3744    -1.8282 C.ar    
   3 C3             7.2427     5.6345    -2.9723 C.ar    
   4 C4             6.1415     4.8021    -3.0443 C.ar    
   5 C5             5.2740     4.7092    -1.9721 C.ar    
   6 C6             5.5069     5.4498    -0.8284 C.ar    
   7 C7             4.3280     2.3021    -0.0200 C.3     
   8 N8             4.4064     2.4992    -1.4696 N.am    
   9 C9             5.7132     2.5039     0.5977 C.3     
  10 C10            4.7851     1.4819    -2.2685 C.2     
  11 C11            4.9776     1.7147    -3.7449 C.3     
  12 O12            4.9710     0.3791    -1.7991 O.2     
  13 C13            5.8498     0.6002    -4.3273 C.3     
  14 C14            3.6155     1.7162    -4.4426 C.3     
  15 C15            3.8123     1.9874    -5.9374 C.3     
  16 N16            4.7645     1.0060    -6.4748 N.am    
  17 C17            6.0719     0.8588    -5.8208 C.3     
  18 S18            4.3714     0.0829    -7.7923 S.o2    
  19 C19            4.8883     0.9705    -9.2240 C.ar    
  20 C20            6.1461     0.7819    -9.7186 C.ar    
  21 C21            6.5553     1.4870   -10.8560 C.ar    
  22 C22            5.6649     2.3834   -11.4778 C.ar    
  23 C23            4.3872     2.5548   -10.9504 C.ar    
  24 C24            4.0092     1.8516    -9.8421 C.ar    
  25 C25            7.7899     1.5305   -11.6327 C.2     
  26 N26            7.6166     2.3757   -12.6083 N.2     
  27 N27            6.3294     2.9198   -12.5495 N.pl3   
  28 O28            5.1859    -1.0796    -7.7251 O.2     
  29 O29            2.9520     0.0357    -7.8401 O.2     
  30 C30            4.0732     3.8020    -2.0508 C.3     
  31 C31            8.6767     7.2820    -1.7497 C.3     
  32 F32            9.7647     6.5722    -1.2304 F       
  33 F33            8.9928     7.7490    -3.0300 F       
  34 F34            8.3871     8.3673    -0.9157 F       
  35 H35            6.7928     6.8572     0.1391 H       
  36 H36            7.9205     5.7071    -3.8100 H       
  37 H37            5.9587     4.2245    -3.9384 H       
  38 H38            4.8289     5.3775     0.0092 H       
  39 H39            3.6310     3.0229     0.4075 H       
  40 H40            3.9799     1.2910     0.1909 H       
  41 H41            5.6388     2.4450     1.6836 H       
  42 H42            6.3883     1.7278     0.2372 H       
  43 H43            6.0991     3.4825     0.3125 H       
  44 H44            5.4660     2.6767    -3.9002 H       
  45 H45            6.8112     0.5847    -3.8139 H       
  46 H46            5.3505    -0.3595    -4.1946 H       
  47 H47            3.1372     0.7459    -4.3088 H       
  48 H48            2.9866     2.4949    -4.0112 H       
  49 H49            2.8578     1.8917    -6.4549 H       
  50 H50            4.2068     2.9939    -6.0773 H       
  51 H51            6.6507     1.7732    -5.9512 H       
  52 H52            6.6083     0.0184    -6.2614 H       
  53 H53            6.8221     0.0925    -9.2347 H       
  54 H54            3.6959     3.2398   -11.4186 H       
  55 H55            3.0174     1.9874    -9.4369 H       
  56 H56            8.6872     0.9631   -11.4340 H       
  57 H57            5.9654     3.5721   -13.1684 H       
  58 H58            3.2456     4.2458    -1.4973 H       
  59 H59            3.7842     3.6714    -3.0937 H       
@<TRIPOS>BOND
   1    1    2 ar
   2    1    6 ar
   3    1   35 1
   4    2   31 1
   5    2    3 ar
   6    3    4 ar
   7    3   36 1
   8    4    5 ar
   9    4   37 1
  10    5    6 ar
  11    5   30 1
  12    6   38 1
  13    7    8 1
  14    7    9 1
  15    7   39 1
  16    7   40 1
  17    8   10 am
  18    8   30 1
  19    9   41 1
  20    9   42 1
  21    9   43 1
  22   10   11 1
  23   10   12 2
  24   11   13 1
  25   11   14 1
  26   11   44 1
  27   13   17 1
  28   13   45 1
  29   13   46 1
  30   14   15 1
  31   14   47 1
  32   14   48 1
  33   15   16 1
  34   15   49 1
  35   15   50 1
  36   16   17 1
  37   16   18 am
  38   17   51 1
  39   17   52 1
  40   18   19 1
  41   18   28 2
  42   18   29 2
  43   19   20 ar
  44   19   24 ar
  45   20   21 ar
  46   20   53 1
  47   21   22 ar
  48   21   25 1
  49   22   23 ar
  50   22   27 1
  51   23   24 ar
  52   23   54 1
  53   24   55 1
  54   25   26 2
  55   25   56 1
  56   26   27 1
  57   27   57 1
  58   30   58 1
  59   30   59 1
  60   31   32 1
  61   31   33 1
  62   31   34 1

#	End of record

