#	Name: ASD01914244
#	Creating user name:	WinNT
#	Creation time:	15. 06. 2019 20:03

#	Modifying user name:	WinNT
#	Modification time:	15. 06. 2019 20:03

#	Program:	/corina/corina34_cracker 3.40 0067  02.08.2006

@<TRIPOS>MOLECULE
ASD01914244
  26   28    0    0    0
SMALL
NO_CHARGES


@<TRIPOS>ATOM
   1 N1            -0.0169     1.3963     0.0097 N.2     
   2 N2             0.0021    -0.0041     0.0020 N.pl3   
   3 C3             1.2281     1.8294     0.0002 C.2     
   4 C4             2.0831     0.7123    -0.0140 C.2     
   5 C5             1.3048    -0.4075    -0.0126 C.2     
   6 C6             1.7865    -1.8068    -0.0243 C.ar    
   7 C7             1.6531     3.2464     0.0033 C.2     
   8 C8             0.8228     4.3075     0.0223 C.2     
   9 C9             3.1552    -2.0763    -0.0325 C.ar    
  10 C10            0.8738    -2.8617    -0.0213 C.ar    
  11 C11            1.3292    -4.1642    -0.0317 C.ar    
  12 C12            2.6878    -4.4249    -0.0447 C.ar    
  13 C13            3.5980    -3.3831    -0.0429 C.ar    
  14 S14            3.3203     3.8064    -0.0096 S.3     
  15 C15            2.7903     5.4832     0.0049 C.2     
  16 C16            1.4552     5.5349     0.0220 C.2     
  17 Cl17           0.5805     7.0344     0.0400 Cl      
  18 H18           -0.7747    -0.5849     0.0068 H       
  19 H19            3.1628     0.7372    -0.0242 H       
  20 H20           -0.2523     4.2059     0.0364 H       
  21 H21            3.8667    -1.2638    -0.0311 H       
  22 H22           -0.1870    -2.6594    -0.0104 H       
  23 H23            0.6236    -4.9818    -0.0294 H       
  24 H24            3.0393    -5.4461    -0.0521 H       
  25 H25            4.6573    -3.5930    -0.0530 H       
  26 H26            3.4454     6.3418     0.0034 H       
@<TRIPOS>BOND
   1    1    2 1
   2    1    3 2
   3    2    5 1
   4    2   18 1
   5    3    4 1
   6    3    7 1
   7    4    5 2
   8    4   19 1
   9    5    6 1
  10    6   10 ar
  11    6    9 ar
  12    7   14 1
  13    7    8 2
  14    8   16 1
  15    8   20 1
  16    9   13 ar
  17    9   21 1
  18   10   11 ar
  19   10   22 1
  20   11   12 ar
  21   11   23 1
  22   12   13 ar
  23   12   24 1
  24   13   25 1
  25   14   15 1
  26   15   16 2
  27   15   26 1
  28   16   17 1

#	End of record

