#	Name: ASD00069485
#	Creating user name:	WinNT
#	Creation time:	15. 06. 2019 18:29

#	Modifying user name:	WinNT
#	Modification time:	15. 06. 2019 18:29

#	Program:	/corina/corina34_cracker 3.40 0067  02.08.2006

@<TRIPOS>MOLECULE
ASD00069485
  34   35    0    0    0
SMALL
NO_CHARGES


@<TRIPOS>ATOM
   1 O1            -0.0174     1.4305     0.0099 O.3     
   2 B2             0.0021    -0.0041     0.0020 Du      
   3 O3             1.0670    -0.3534    -0.8937 O.3     
   4 C4            -0.9361    -0.9782     0.7993 C.ar    
   5 C5            -0.7937    -2.3622     0.6874 C.ar    
   6 C6            -1.9317    -0.4837     1.6439 C.ar    
   7 C7            -2.7358    -1.3760     2.3272 C.ar    
   8 N8            -2.5717    -2.6766     2.1897 N.ar    
   9 C9            -1.6408    -3.1840     1.4069 C.ar    
  10 C10            2.1089     0.6053    -0.6139 C.3     
  11 C11            1.3736     1.8147    -0.0013 C.3     
  12 C12            1.5763     3.0578    -0.8700 C.3     
  13 C13            1.8670     2.0726     1.4238 C.3     
  14 C14            3.1105     0.0270     0.3877 C.3     
  15 C15            2.8198     1.0122    -1.9062 C.3     
  16 C16           -1.5017    -4.6801     1.2904 C.3     
  17 H17           -0.0330    -2.7848     0.0477 H       
  18 H18           -2.0712     0.5808     1.7618 H       
  19 H19           -3.5086    -1.0028     2.9828 H       
  20 H20            1.1819     2.8713    -1.8689 H       
  21 H21            1.0512     3.9024    -0.4239 H       
  22 H22            2.6403     3.2853    -0.9361 H       
  23 H23            2.9371     2.2793     1.4061 H       
  24 H24            1.3383     2.9292     1.8419 H       
  25 H25            1.6771     1.1929     2.0388 H       
  26 H26            3.5790    -0.8603    -0.0381 H       
  27 H27            3.8754     0.7717     0.6077 H       
  28 H28            2.5906    -0.2424     1.3071 H       
  29 H29            2.0954     1.4363    -2.6014 H       
  30 H30            3.5854     1.7548    -1.6813 H       
  31 H31            3.2852     0.1354    -2.3564 H       
  32 H32           -2.1296    -5.0411     0.4759 H       
  33 H33           -0.4613    -4.9334     1.0868 H       
  34 H34           -1.8135    -5.1478     2.2243 H       
@<TRIPOS>BOND
   1    1    2 1
   2    1   11 1
   3    2    3 1
   4    2    4 1
   5    3   10 1
   6    4    5 ar
   7    4    6 ar
   8    5    9 ar
   9    5   17 1
  10    6    7 ar
  11    6   18 1
  12    7    8 ar
  13    7   19 1
  14    8    9 ar
  15    9   16 1
  16   10   11 1
  17   10   14 1
  18   10   15 1
  19   11   12 1
  20   11   13 1
  21   12   20 1
  22   12   21 1
  23   12   22 1
  24   13   23 1
  25   13   24 1
  26   13   25 1
  27   14   26 1
  28   14   27 1
  29   14   28 1
  30   15   29 1
  31   15   30 1
  32   15   31 1
  33   16   32 1
  34   16   33 1
  35   16   34 1

#	End of record

