#	Name: ASD03130012
#	Creating user name:	WinNT
#	Creation time:	15. 06. 2019 20:33

#	Modifying user name:	WinNT
#	Modification time:	15. 06. 2019 20:33

#	Program:	/corina/corina34_cracker 3.40 0067  02.08.2006

@<TRIPOS>MOLECULE
ASD03130012
 375  376    0    0    0
SMALL
NO_CHARGES


@<TRIPOS>ATOM
   1 C1           -40.3524   -36.6941    27.8235 C.2     
   2 O2           -40.1581   -35.5062    27.7233 O.2     
   3 C3           -41.6510   -37.1994    28.3973 C.3     
   4 C4           -42.5374   -36.0115    28.7768 C.3     
   5 C5           -43.8559   -36.5245    29.3593 C.3     
   6 C6           -44.7423   -35.3366    29.7388 C.3     
   7 C7           -46.0607   -35.8496    30.3214 C.3     
   8 C8           -46.9471   -34.6616    30.7008 C.3     
   9 C9           -48.2656   -35.1746    31.2834 C.3     
  10 C10          -49.1520   -33.9867    31.6629 C.3     
  11 C11          -50.4704   -34.4997    32.2455 C.3     
  12 C12          -51.3568   -33.3118    32.6249 C.3     
  13 C13          -52.6753   -33.8248    33.2075 C.3     
  14 C14          -53.5617   -32.6368    33.5869 C.3     
  15 C15          -54.8801   -33.1499    34.1695 C.3     
  16 C16          -55.7665   -31.9619    34.5490 C.3     
  17 C17          -57.0850   -32.4749    35.1316 C.3     
  18 N18           29.7562   -23.9644    29.0374 N.am    
  19 C19          -38.0170   -37.1524    26.7956 C.3     
  20 C20          -39.3131   -37.6577    27.3752 C.2     
  21 N21          -37.1654   -38.2930    26.4325 N.3     
  22 O22          -39.5074   -38.8456    27.4754 O.2     
  23 C23          -35.3398   -39.3946    24.0603 C.3     
  24 C24          -35.0517   -38.9828    25.5054 C.3     
  25 C25          -33.6028   -38.5897    25.6365 C.2     
  26 N26          -35.9033   -37.8422    25.8686 N.3     
  27 O27          -33.3086   -37.4697    25.9969 O.2     
  28 N28          -38.4389   -40.8184    22.4069 N.pl3   
  29 C29          -38.9267   -41.2484    21.1955 C.2     
  30 N30          -38.1658   -41.2155    20.1378 N.2     
  31 N31          -40.2171   -41.7129    21.0999 N.pl3   
  32 C32          -36.7758   -39.9116    23.9539 C.3     
  33 C33          -37.0638   -40.3234    22.5088 C.3     
  34 C34          -31.2255   -39.1007    25.4806 C.3     
  35 C35          -30.3865   -39.9654    24.5753 C.2     
  36 N36          -32.6340   -39.4828    25.3532 N.am    
  37 O37          -30.9133   -40.8170    23.8911 O.2     
  38 C38          -32.7290   -38.7236    28.3867 C.ar    
  39 C39          -33.4203   -37.8489    29.2039 C.ar    
  40 C40          -32.9110   -36.5886    29.4550 C.ar    
  41 C41          -31.7101   -36.2031    28.8893 C.ar    
  42 C42          -31.0189   -37.0776    28.0717 C.ar    
  43 C43          -31.5283   -38.3379    27.8206 C.ar    
  44 C44          -30.7743   -39.2916    26.9300 C.3     
  45 C45          -28.2176   -40.0318    22.2392 C.3     
  46 C46          -28.2353   -40.6329    23.6460 C.3     
  47 C47          -26.8279   -40.7024    24.1803 C.2     
  48 N48          -29.0508   -39.7924    24.5260 N.am    
  49 O49          -26.5350   -40.1082    25.1962 O.2     
  50 C50          -29.6069   -40.0752    21.6568 C.2     
  51 N51          -30.5337   -39.0682    21.6815 N.pl3   
  52 C52          -31.6367   -39.5250    21.0502 C.2     
  53 N53          -31.4148   -40.7480    20.6523 N.2     
  54 C54          -30.1730   -41.1100    21.0071 C.2     
  55 C55          -24.4353   -42.5972    25.1031 C.3     
  56 C56          -24.5266   -41.4922    24.0487 C.3     
  57 C57          -23.5751   -41.7951    22.9200 C.2     
  58 N58          -25.8948   -41.4248    23.5293 N.am    
  59 O59          -24.0041   -42.0071    21.8056 O.2     
  60 C60          -25.3002   -42.2243    26.3088 C.3     
  61 C61          -24.9338   -43.9146    24.5057 C.3     
  62 C62          -21.0236   -40.6223    21.4099 C.3     
  63 C63          -21.3152   -41.9902    22.0302 C.3     
  64 C64          -20.0305   -42.5993    22.5299 C.2     
  65 N65          -22.2474   -41.8303    23.1489 N.am    
  66 O66          -19.9060   -42.8730    23.7049 O.2     
  67 C67          -22.3048   -40.0590    20.7918 C.3     
  68 C68          -22.0176   -38.7117    20.1809 C.2     
  69 O69          -20.8983   -38.2477    20.2345 O.2     
  70 N70          -23.0045   -38.0224    19.5748 N.am    
  71 C71          -17.0440   -44.1570    21.0864 C.3     
  72 C72          -17.7333   -43.3289    22.1726 C.3     
  73 C73          -16.8599   -42.1574    22.5412 C.2     
  74 N74          -19.0201   -42.8400    21.6711 N.am    
  75 O75          -17.2718   -41.0255    22.3990 O.2     
  76 C76          -17.8483   -45.4029    20.8183 C.2     
  77 N77          -17.3849   -46.3324    19.9593 N.am    
  78 O78          -18.9127   -45.5692    21.3755 O.2     
  79 C79          -15.1117   -40.9635    24.9656 C.3     
  80 C80          -14.8136   -41.2353    23.4897 C.3     
  81 C81          -13.3515   -41.5608    23.3241 C.2     
  82 N82          -15.6212   -42.3675    23.0289 N.am    
  83 O83          -12.9972   -42.7141    23.2009 O.2     
  84 C84          -14.3870   -39.6900    25.4061 C.3     
  85 C85          -15.0087   -38.4809    24.7044 C.3     
  86 C86          -14.5211   -39.5251    26.9212 C.3     
  87 C87          -10.7849   -40.9194    21.5444 C.3     
  88 C88          -11.0286   -40.8764    23.0543 C.3     
  89 C89          -10.1612   -39.8107    23.6730 C.2     
  90 N90          -12.4377   -40.5702    23.3130 N.am    
  91 O91          -10.6699   -38.8864    24.2712 O.2     
  92 O92          -10.9971   -39.6193    20.9905 O.3     
  93 C93           -7.7264   -39.1855    25.6344 C.3     
  94 C94           -7.9768   -38.8487    24.1631 C.3     
  95 C95           -6.6609   -38.7846    23.4314 C.2     
  96 N96           -8.8201   -39.8847    23.5616 N.am    
  97 O97           -6.4484   -39.5309    22.4993 O.2     
  98 C98           -9.0481   -39.1282    26.4029 C.3     
  99 C99           -8.8015   -39.4600    27.8521 C.2     
 100 O100          -7.6790   -39.7170    28.2328 O.2     
 101 N101          -9.8282   -39.4711    28.7250 N.am    
 102 C102          -4.5835   -36.9341    21.8737 C.3     
 103 C103          -4.4410   -37.8358    23.1016 C.3     
 104 C104          -3.3839   -37.2742    24.0172 C.2     
 105 N105          -5.7202   -37.8980    23.8129 N.am    
 106 O106          -3.6709   -36.9572    25.1521 O.2     
 107 C107          -5.6567   -37.5042    20.9442 C.3     
 108 C108          -4.9889   -35.5274    22.3183 C.3     
 109 C109          -0.5045   -37.7051    25.3170 C.3     
 110 C110          -1.0921   -36.5783    24.4649 C.3     
 111 C111           0.0019   -35.9480    23.6421 C.2     
 112 N112          -2.1197   -37.1242    23.5748 N.am    
 113 O113          -0.0698   -35.9541    22.4314 O.2     
 114 C114          -1.5876   -38.2622    26.2429 C.3     
 115 C115          -1.0088   -39.3720    27.0822 C.2     
 116 O116           0.1509   -39.6852    26.9530 O.2     
 117 O117          -1.7818   -40.0125    27.9733 O.3     
 118 C118           1.7348   -33.3264    23.1029 C.3     
 119 C119           2.1233   -34.7646    23.4518 C.3     
 120 C120           3.4069   -34.7607    24.2413 C.2     
 121 N121           1.0598   -35.3774    24.2516 N.am    
 122 O122           3.4311   -35.2242    25.3618 O.2     
 123 C123           6.4875   -35.5813    24.2928 C.3     
 124 C124           5.7759   -34.2385    24.4697 C.3     
 125 C125           6.6670   -33.1287    23.9744 C.2     
 126 N126           4.5281   -34.2422    23.7022 N.am    
 127 O127           6.2962   -32.4114    23.0694 O.2     
 128 C128           8.3671   -30.5474    24.7574 C.3     
 129 C129           8.7422   -31.8542    24.0557 C.3     
 130 C130          10.1797   -32.1917    24.3572 C.2     
 131 N131           7.8760   -32.9331    24.5372 N.am    
 132 O132          10.4536   -33.2311    24.9190 O.2     
 133 C133          13.1207   -32.5470    23.1780 C.3     
 134 C134          12.5582   -31.6665    24.2957 C.3     
 135 C135          13.3637   -30.3962    24.3880 C.2     
 136 N136          11.1608   -31.3385    24.0026 N.am    
 137 O137          12.8237   -29.3225    24.2249 O.2     
 138 N138          12.2413   -36.0525    22.0361 N.pl3   
 139 C139          12.5772   -37.0128    21.1114 C.2     
 140 N140          13.5232   -36.7809    20.2453 N.2     
 141 N141          11.9154   -38.2178    21.1003 N.pl3   
 142 C142          12.3841   -33.8880    23.1657 C.3     
 143 C143          12.9465   -34.7685    22.0480 C.3     
 144 C144          15.3585   -28.6470    26.1565 C.3     
 145 C145          15.4673   -29.2183    24.7413 C.3     
 146 C146          16.9113   -29.5154    24.4292 C.2     
 147 N147          14.6842   -30.4532    24.6517 N.am    
 148 O148          17.2646   -30.6571    24.2227 O.2     
 149 O149          15.8598   -29.6009    27.0951 O.3     
 150 C150          13.8927   -28.3426    26.4723 C.3     
 151 C151          19.5674   -28.7258    22.6918 C.3     
 152 C152          19.2308   -28.8110    24.1819 C.3     
 153 C153          20.0645   -27.8127    24.9431 C.2     
 154 N154          17.8102   -28.5124    24.3795 N.am    
 155 O155          19.5251   -26.9535    25.6077 O.2     
 156 C156          18.8515   -29.8511    21.9421 C.3     
 157 C157          19.1083   -27.3739    22.1417 C.3     
 158 C158          19.9435   -26.2570    22.7711 C.3     
 159 C159          22.2192   -26.8420    25.5367 C.3     
 160 C160          23.6808   -27.1416    25.3249 C.2     
 161 N161          21.4096   -27.8747    24.8853 N.am    
 162 O162          24.0135   -28.1213    24.6921 O.2     
 163 C163          26.5951   -26.1230    24.4123 C.3     
 164 C164          26.0370   -26.6692    25.7280 C.3     
 165 C165          26.7938   -26.0665    26.8834 C.2     
 166 N166          24.6183   -26.3209    25.8387 N.am    
 167 O167          26.3490   -25.0964    27.4597 O.2     
 168 C168          26.5039   -24.5957    24.4146 C.3     
 169 C169          28.0579   -26.5463    24.2640 C.3     
 170 C170          28.1336   -28.0632    24.0791 C.3     
 171 C171          29.5373   -27.1924    29.0553 C.3     
 172 C172          28.6394   -26.0984    28.4740 C.3     
 173 C173          29.4786   -24.9011    28.1089 C.2     
 174 N174          27.9650   -26.6054    27.2764 N.am    
 175 O175          29.9042   -24.7804    26.9796 O.2     
 176 C176          30.6257   -27.5510    28.0415 C.3     
 177 C177          30.1878   -26.6867    30.3445 C.3     
 178 C178          30.9731   -27.8246    30.9999 C.3     
 179 H179         -42.1625   -37.8118    27.6547 H       
 180 H180         -41.4473   -37.7988    29.2846 H       
 181 H181         -42.0259   -35.3991    29.5194 H       
 182 H182         -42.7411   -35.4121    27.8894 H       
 183 H183         -44.3674   -37.1369    28.6167 H       
 184 H184         -43.6522   -37.1239    30.2467 H       
 185 H185         -44.2308   -34.7242    30.4814 H       
 186 H186         -44.9460   -34.7372    28.8515 H       
 187 H187         -46.5722   -36.4620    29.5788 H       
 188 H188         -45.8570   -36.4490    31.2087 H       
 189 H189         -46.4356   -34.0492    31.4434 H       
 190 H190         -47.1508   -34.0622    29.8135 H       
 191 H191         -48.7771   -35.7870    30.5408 H       
 192 H192         -48.0619   -35.7740    32.1707 H       
 193 H193         -48.6405   -33.3743    32.4055 H       
 194 H194         -49.3557   -33.3873    30.7756 H       
 195 H195         -50.9819   -35.1121    31.5029 H       
 196 H196         -50.2667   -35.0991    33.1328 H       
 197 H197         -50.8453   -32.6994    33.3675 H       
 198 H198         -51.5605   -32.7124    31.7376 H       
 199 H199         -53.1867   -34.4372    32.4649 H       
 200 H200         -52.4716   -34.4242    34.0948 H       
 201 H201         -53.0502   -32.0244    34.3295 H       
 202 H202         -53.7653   -32.0374    32.6996 H       
 203 H203         -55.3916   -33.7623    33.4269 H       
 204 H204         -54.6764   -33.7493    35.0568 H       
 205 H205         -55.2550   -31.3495    35.2916 H       
 206 H206         -55.9702   -31.3625    33.6617 H       
 207 H207         -57.7165   -31.6286    35.4019 H       
 208 H208         -57.5964   -33.0873    34.3890 H       
 209 H209         -56.8813   -33.0743    36.0189 H       
 210 H210          29.3568   -24.0225    29.9194 H       
 211 H211          30.3553   -23.2321    28.8235 H       
 212 H212         -38.2243   -36.5563    25.9069 H       
 213 H213         -37.5041   -36.5368    27.5345 H       
 214 H214         -37.0118   -38.8967    27.2262 H       
 215 H215         -35.2144   -38.5326    23.4050 H       
 216 H216         -34.6472   -40.1816    23.7619 H       
 217 H217         -35.2627   -39.8201    26.1707 H       
 218 H218         -36.0570   -37.2385    25.0748 H       
 219 H219         -39.0052   -40.8429    23.1941 H       
 220 H220         -38.5100   -41.5189    19.2831 H       
 221 H221         -40.7834   -41.7374    21.8871 H       
 222 H222         -40.5613   -42.0163    20.2453 H       
 223 H223         -36.9012   -40.7736    24.6092 H       
 224 H224         -37.4684   -39.1246    24.2523 H       
 225 H225         -36.3713   -41.1104    22.2103 H       
 226 H226         -36.9385   -39.4614    21.8535 H       
 227 H227         -31.1057   -38.0549    25.1975 H       
 228 H228         -32.8694   -40.3786    25.0649 H       
 229 H229         -33.1247   -39.7098    28.1941 H       
 230 H230         -34.3586   -38.1501    29.6459 H       
 231 H231         -33.4515   -35.9050    30.0929 H       
 232 H232         -31.3125   -35.2182    29.0850 H       
 233 H233         -30.0808   -36.7763    27.6295 H       
 234 H234         -30.9765   -40.3164    27.2415 H       
 235 H235         -29.7054   -39.0927    27.0071 H       
 236 H236         -27.8772   -38.9975    22.2903 H       
 237 H237         -27.5405   -40.6063    21.6070 H       
 238 H238         -28.6590   -41.6365    23.6070 H       
 239 H239         -28.6295   -39.1112    25.0733 H       
 240 H240         -30.4197   -38.1905    22.0783 H       
 241 H241         -32.5510   -38.9703    20.8997 H       
 242 H242         -29.7093   -42.0650    20.8087 H       
 243 H243         -23.3989   -42.7115    25.4208 H       
 244 H244         -24.2619   -40.5362    24.5004 H       
 245 H245         -26.1290   -41.9000    22.7168 H       
 246 H246         -25.2410   -43.0150    27.0568 H       
 247 H247         -24.9404   -41.2896    26.7389 H       
 248 H248         -26.3354   -42.1028    25.9897 H       
 249 H249         -25.9702   -43.8003    24.1880 H       
 250 H250         -24.3177   -44.1802    23.6467 H       
 251 H251         -24.8688   -44.7018    25.2568 H       
 252 H252         -20.6633   -39.9425    22.1821 H       
 253 H253         -20.2632   -40.7289    20.6362 H       
 254 H254         -21.7585   -42.6430    21.2783 H       
 255 H255         -21.9091   -41.7499    24.0545 H       
 256 H256         -22.6650   -40.7388    20.0196 H       
 257 H257         -23.0651   -39.9524    21.5656 H       
 258 H258         -23.8997   -38.3935    19.5319 H       
 259 H259         -22.8196   -37.1551    19.1816 H       
 260 H260         -16.9707   -43.5681    20.1721 H       
 261 H261         -16.0444   -44.4348    21.4207 H       
 262 H262         -17.8987   -43.9499    23.0529 H       
 263 H263         -19.1448   -42.6895    20.7210 H       
 264 H264         -16.5337   -46.1994    19.5136 H       
 265 H265         -17.9027   -47.1343    19.7867 H       
 266 H266         -16.1856   -40.8361    25.1019 H       
 267 H267         -14.7663   -41.8045    25.5668 H       
 268 H268         -15.0580   -40.3512    22.9009 H       
 269 H269         -15.2643   -43.2683    23.0747 H       
 270 H270         -13.3324   -39.7617    25.1403 H       
 271 H271         -16.0447   -38.3683    25.0241 H       
 272 H272         -14.4487   -37.5825    24.9642 H       
 273 H273         -14.9757   -38.6303    23.6252 H       
 274 H274         -14.0782   -40.3866    27.4211 H       
 275 H275         -14.0049   -38.6179    27.2351 H       
 276 H276         -15.5758   -39.4534    27.1870 H       
 277 H277          -9.7594   -41.2339    21.3507 H       
 278 H278         -11.4749   -41.6271    21.0850 H       
 279 H279         -10.7812   -41.8445    23.4899 H       
 280 H280         -12.7130   -39.6545    23.4763 H       
 281 H281         -10.8599   -39.5719    20.0345 H       
 282 H282          -7.3047   -40.1878    25.7110 H       
 283 H283          -7.0279   -38.4641    26.0585 H       
 284 H284          -8.4796   -37.8842    24.0917 H       
 285 H285          -8.4132   -40.6240    23.0832 H       
 286 H286          -9.4697   -38.1259    26.3263 H       
 287 H287          -9.7466   -39.8496    25.9788 H       
 288 H288         -10.7259   -39.2655    28.4206 H       
 289 H289          -9.6694   -39.6846    29.6578 H       
 290 H290          -3.6318   -36.8878    21.3445 H       
 291 H291          -4.1522   -38.8380    22.7848 H       
 292 H292          -5.8902   -37.3012    24.5584 H       
 293 H293          -5.7583   -36.8619    20.0694 H       
 294 H294          -5.3680   -38.5064    20.6274 H       
 295 H295          -6.6085   -37.5506    21.4734 H       
 296 H296          -5.9406   -35.5737    22.8475 H       
 297 H297          -4.2243   -35.1212    22.9805 H       
 298 H298          -5.0904   -34.8850    21.4436 H       
 299 H299          -0.1387   -38.4996    24.6665 H       
 300 H300           0.3199   -37.3164    25.9148 H       
 301 H301          -1.5374   -35.8254    25.1152 H       
 302 H302          -1.8902   -37.3778    22.6671 H       
 303 H303          -1.9534   -37.4677    26.8934 H       
 304 H304          -2.4120   -38.6509    25.6451 H       
 305 H305          -1.3660   -40.7173    28.4886 H       
 306 H306           1.5952   -32.7550    24.0206 H       
 307 H307           2.5260   -32.8705    22.5078 H       
 308 H308           0.8064   -33.3292    22.5319 H       
 309 H309           2.2629   -35.3360    22.5341 H       
 310 H310           1.1172   -35.3725    25.2199 H       
 311 H311           6.7106   -35.7380    23.2374 H       
 312 H312           7.4160   -35.5785    24.8639 H       
 313 H313           5.8430   -36.3840    24.6510 H       
 314 H314           5.5529   -34.0818    25.5251 H       
 315 H315           4.5088   -33.8715    22.8061 H       
 316 H316           7.3274   -30.3033    24.5393 H       
 317 H317           8.4951   -30.6632    25.8336 H       
 318 H318           9.0116   -29.7447    24.3991 H       
 319 H319           8.6142   -31.7385    22.9794 H       
 320 H320           8.1725   -33.5068    25.2610 H       
 321 H321          12.9834   -32.0482    22.2186 H       
 322 H322          14.1834   -32.7178    23.3500 H       
 323 H323          12.6146   -32.2021    25.2434 H       
 324 H324          10.9418   -30.5072    23.5533 H       
 325 H325          11.5373   -36.2251    22.6807 H       
 326 H326          13.7602   -37.4584    19.5928 H       
 327 H327          11.2114   -38.3904    21.7449 H       
 328 H328          12.1524   -38.8954    20.4479 H       
 329 H329          12.5214   -34.3868    24.1251 H       
 330 H330          11.3214   -33.7172    22.9937 H       
 331 H331          14.0093   -34.9393    22.2199 H       
 332 H332          12.8092   -34.2697    21.0886 H       
 333 H333          15.9428   -27.7294    26.2238 H       
 334 H334          15.0829   -28.4916    24.0256 H       
 335 H335          15.1161   -31.3119    24.7821 H       
 336 H336          16.7858   -29.8414    26.9549 H       
 337 H337          13.3053   -29.2569    26.3876 H       
 338 H338          13.8131   -27.9523    27.4869 H       
 339 H339          13.5154   -27.6018    25.7674 H       
 340 H340          20.6442   -28.8265    22.5563 H       
 341 H341          19.4449   -29.8158    24.5459 H       
 342 H342          17.5165   -27.5928    24.4746 H       
 343 H343          17.7743   -29.6919    21.9902 H       
 344 H344          19.1721   -29.8550    20.9003 H       
 345 H345          19.0982   -30.8082    22.4017 H       
 346 H346          19.2381   -27.3589    21.0596 H       
 347 H347          18.0565   -27.2214    22.3837 H       
 348 H348          19.7503   -25.3203    22.2483 H       
 349 H349          19.6733   -26.1492    23.8216 H       
 350 H350          21.0017   -26.5059    22.6917 H       
 351 H351          22.0018   -26.8299    26.6047 H       
 352 H352          21.9817   -25.8690    25.1065 H       
 353 H353          21.8417   -28.6031    24.4123 H       
 354 H354          26.0156   -26.5203    23.5790 H       
 355 H355          26.1475   -27.7534    25.7473 H       
 356 H356          24.3537   -25.4995    26.2817 H       
 357 H357          27.0178   -24.2023    25.2917 H       
 358 H358          26.9721   -24.2024    23.5123 H       
 359 H359          25.4567   -24.2943    24.4415 H       
 360 H360          28.4928   -26.0522    23.3952 H       
 361 H361          28.6111   -26.2613    25.1589 H       
 362 H362          29.1779   -28.3727    24.0394 H       
 363 H363          27.6400   -28.5563    24.9166 H       
 364 H364          27.6366   -28.3412    23.1497 H       
 365 H365          28.9382   -28.0765    29.2732 H       
 366 H366          27.8947   -25.8078    29.2149 H       
 367 H367          28.3612   -27.3291    26.7662 H       
 368 H368          31.2654   -28.3304    28.4557 H       
 369 H369          30.1623   -27.9113    27.1231 H       
 370 H370          31.2249   -26.6669    27.8236 H       
 371 H371          30.8651   -25.8649    30.1116 H       
 372 H372          29.4147   -26.3375    31.0288 H       
 373 H373          30.2958   -28.6463    31.2327 H       
 374 H374          31.7462   -28.1737    30.3155 H       
 375 H375          31.4365   -27.4643    31.9183 H       
@<TRIPOS>BOND
   1    1   20 1
   2    1    2 2
   3    1    3 1
   4    3    4 1
   5    3  179 1
   6    3  180 1
   7    4    5 1
   8    4  181 1
   9    4  182 1
  10    5    6 1
  11    5  183 1
  12    5  184 1
  13    6    7 1
  14    6  185 1
  15    6  186 1
  16    7    8 1
  17    7  187 1
  18    7  188 1
  19    8    9 1
  20    8  189 1
  21    8  190 1
  22    9   10 1
  23    9  191 1
  24    9  192 1
  25   10   11 1
  26   10  193 1
  27   10  194 1
  28   11   12 1
  29   11  195 1
  30   11  196 1
  31   12   13 1
  32   12  197 1
  33   12  198 1
  34   13   14 1
  35   13  199 1
  36   13  200 1
  37   14   15 1
  38   14  201 1
  39   14  202 1
  40   15   16 1
  41   15  203 1
  42   15  204 1
  43   16   17 1
  44   16  205 1
  45   16  206 1
  46   17  207 1
  47   17  208 1
  48   17  209 1
  49   18  173 am
  50   18  210 1
  51   18  211 1
  52   19   20 1
  53   19   21 1
  54   19  212 1
  55   19  213 1
  56   20   22 2
  57   21   26 1
  58   21  214 1
  59   23   32 1
  60   23   24 1
  61   23  215 1
  62   23  216 1
  63   24   26 1
  64   24   25 1
  65   24  217 1
  66   25   27 2
  67   25   36 am
  68   26  218 1
  69   28   33 1
  70   28   29 1
  71   28  219 1
  72   29   30 2
  73   29   31 1
  74   30  220 1
  75   31  221 1
  76   31  222 1
  77   32   33 1
  78   32  223 1
  79   32  224 1
  80   33  225 1
  81   33  226 1
  82   34   35 1
  83   34   36 1
  84   34   44 1
  85   34  227 1
  86   35   37 2
  87   35   48 am
  88   36  228 1
  89   38   39 ar
  90   38   43 ar
  91   38  229 1
  92   39   40 ar
  93   39  230 1
  94   40   41 ar
  95   40  231 1
  96   41   42 ar
  97   41  232 1
  98   42   43 ar
  99   42  233 1
 100   43   44 1
 101   44  234 1
 102   44  235 1
 103   45   50 1
 104   45   46 1
 105   45  236 1
 106   45  237 1
 107   46   47 1
 108   46   48 1
 109   46  238 1
 110   47   49 2
 111   47   58 am
 112   48  239 1
 113   50   51 1
 114   50   54 2
 115   51   52 1
 116   51  240 1
 117   52   53 2
 118   52  241 1
 119   53   54 1
 120   54  242 1
 121   55   60 1
 122   55   61 1
 123   55   56 1
 124   55  243 1
 125   56   58 1
 126   56   57 1
 127   56  244 1
 128   57   59 2
 129   57   65 am
 130   58  245 1
 131   60  246 1
 132   60  247 1
 133   60  248 1
 134   61  249 1
 135   61  250 1
 136   61  251 1
 137   62   67 1
 138   62   63 1
 139   62  252 1
 140   62  253 1
 141   63   65 1
 142   63   64 1
 143   63  254 1
 144   64   66 2
 145   64   74 am
 146   65  255 1
 147   67   68 1
 148   67  256 1
 149   67  257 1
 150   68   69 2
 151   68   70 am
 152   70  258 1
 153   70  259 1
 154   71   76 1
 155   71   72 1
 156   71  260 1
 157   71  261 1
 158   72   74 1
 159   72   73 1
 160   72  262 1
 161   73   75 2
 162   73   82 am
 163   74  263 1
 164   76   77 am
 165   76   78 2
 166   77  264 1
 167   77  265 1
 168   79   84 1
 169   79   80 1
 170   79  266 1
 171   79  267 1
 172   80   82 1
 173   80   81 1
 174   80  268 1
 175   81   83 2
 176   81   90 am
 177   82  269 1
 178   84   85 1
 179   84   86 1
 180   84  270 1
 181   85  271 1
 182   85  272 1
 183   85  273 1
 184   86  274 1
 185   86  275 1
 186   86  276 1
 187   87   92 1
 188   87   88 1
 189   87  277 1
 190   87  278 1
 191   88   90 1
 192   88   89 1
 193   88  279 1
 194   89   91 2
 195   89   96 am
 196   90  280 1
 197   92  281 1
 198   93   98 1
 199   93   94 1
 200   93  282 1
 201   93  283 1
 202   94   96 1
 203   94   95 1
 204   94  284 1
 205   95   97 2
 206   95  105 am
 207   96  285 1
 208   98   99 1
 209   98  286 1
 210   98  287 1
 211   99  100 2
 212   99  101 am
 213  101  288 1
 214  101  289 1
 215  102  107 1
 216  102  108 1
 217  102  103 1
 218  102  290 1
 219  103  105 1
 220  103  104 1
 221  103  291 1
 222  104  106 2
 223  104  112 am
 224  105  292 1
 225  107  293 1
 226  107  294 1
 227  107  295 1
 228  108  296 1
 229  108  297 1
 230  108  298 1
 231  109  114 1
 232  109  110 1
 233  109  299 1
 234  109  300 1
 235  110  112 1
 236  110  111 1
 237  110  301 1
 238  111  113 2
 239  111  121 am
 240  112  302 1
 241  114  115 1
 242  114  303 1
 243  114  304 1
 244  115  116 2
 245  115  117 1
 246  117  305 1
 247  118  119 1
 248  118  306 1
 249  118  307 1
 250  118  308 1
 251  119  120 1
 252  119  121 1
 253  119  309 1
 254  120  122 2
 255  120  126 am
 256  121  310 1
 257  123  124 1
 258  123  311 1
 259  123  312 1
 260  123  313 1
 261  124  125 1
 262  124  126 1
 263  124  314 1
 264  125  127 2
 265  125  131 am
 266  126  315 1
 267  128  129 1
 268  128  316 1
 269  128  317 1
 270  128  318 1
 271  129  130 1
 272  129  131 1
 273  129  319 1
 274  130  132 2
 275  130  136 am
 276  131  320 1
 277  133  142 1
 278  133  134 1
 279  133  321 1
 280  133  322 1
 281  134  136 1
 282  134  135 1
 283  134  323 1
 284  135  137 2
 285  135  147 am
 286  136  324 1
 287  138  143 1
 288  138  139 1
 289  138  325 1
 290  139  140 2
 291  139  141 1
 292  140  326 1
 293  141  327 1
 294  141  328 1
 295  142  143 1
 296  142  329 1
 297  142  330 1
 298  143  331 1
 299  143  332 1
 300  144  145 1
 301  144  149 1
 302  144  150 1
 303  144  333 1
 304  145  147 1
 305  145  146 1
 306  145  334 1
 307  146  148 2
 308  146  154 am
 309  147  335 1
 310  149  336 1
 311  150  337 1
 312  150  338 1
 313  150  339 1
 314  151  152 1
 315  151  156 1
 316  151  157 1
 317  151  340 1
 318  152  154 1
 319  152  153 1
 320  152  341 1
 321  153  155 2
 322  153  161 am
 323  154  342 1
 324  156  343 1
 325  156  344 1
 326  156  345 1
 327  157  158 1
 328  157  346 1
 329  157  347 1
 330  158  348 1
 331  158  349 1
 332  158  350 1
 333  159  160 1
 334  159  161 1
 335  159  351 1
 336  159  352 1
 337  160  162 2
 338  160  166 am
 339  161  353 1
 340  163  164 1
 341  163  168 1
 342  163  169 1
 343  163  354 1
 344  164  166 1
 345  164  165 1
 346  164  355 1
 347  165  167 2
 348  165  174 am
 349  166  356 1
 350  168  357 1
 351  168  358 1
 352  168  359 1
 353  169  170 1
 354  169  360 1
 355  169  361 1
 356  170  362 1
 357  170  363 1
 358  170  364 1
 359  171  172 1
 360  171  176 1
 361  171  177 1
 362  171  365 1
 363  172  174 1
 364  172  173 1
 365  172  366 1
 366  173  175 2
 367  174  367 1
 368  176  368 1
 369  176  369 1
 370  176  370 1
 371  177  178 1
 372  177  371 1
 373  177  372 1
 374  178  373 1
 375  178  374 1
 376  178  375 1

#	End of record

