#	Name: ASD00450051
#	Creating user name:	WinNT
#	Creation time:	15. 06. 2019 18:36

#	Modifying user name:	WinNT
#	Modification time:	15. 06. 2019 18:36

#	Program:	/corina/corina34_cracker 3.40 0067  02.08.2006

@<TRIPOS>MOLECULE
ASD00450051
  49   51    0    0    0
SMALL
NO_CHARGES


@<TRIPOS>ATOM
   1 C1             0.6715     0.8022    -0.1032 C.ar    
   2 C2             0.2504    -0.5287     0.0421 C.ar    
   3 C3             1.1303    -1.4792     0.5309 C.ar    
   4 C4             2.4237    -1.1213     0.8767 C.ar    
   5 C5             2.8505     0.1885     0.7382 C.ar    
   6 C6             1.9852     1.1561     0.2500 C.ar    
   7 C7            -0.2532     1.8181    -0.6271 C.2     
   8 O8            -0.9605     2.4481     0.1362 O.2     
   9 N9            -0.3173     2.0513    -1.9530 N.am    
  10 N10            2.4150     2.4698     0.1107 N.pl3   
  11 C11            3.4880     2.9396     0.8757 C.ar    
  12 C12            4.2182     4.0436     0.4483 C.ar    
  13 C13            3.8228     2.3084     2.0662 C.ar    
  14 C14            4.8825     2.7747     2.8198 C.ar    
  15 C15            5.6108     3.8696     2.3904 C.ar    
  16 C16            5.2778     4.5050     1.2076 C.ar    
  17 F17            3.2740    -2.0571     1.3527 F       
  18 F18            3.8931     4.6638    -0.7071 F       
  19 I19            7.2163     4.5723     3.5382 I       
  20 O20           -1.0149    -0.8825    -0.2949 O.3     
  21 C21           -1.3584    -2.1936    -0.1966 C.ar    
  22 C22           -1.6604    -2.7405     1.0410 C.ar    
  23 C23           -2.0108    -4.0799     1.1379 C.ar    
  24 C24           -1.4126    -2.9845    -1.3358 C.ar    
  25 C25           -1.7621    -4.3181    -1.2375 C.ar    
  26 N26           -2.3162    -4.6347     2.3828 N.am    
  27 C27           -2.0577    -4.8684    -0.0056 C.ar    
  28 S28           -1.5442    -4.0912     3.7433 S.o2    
  29 N29           -2.0918    -2.5563     4.0375 N.am    
  30 O30           -2.0101    -4.8962     4.8176 O.2     
  31 O31           -0.1700    -3.9687     3.4030 O.2     
  32 C32           -2.4379    -6.3230     0.0977 C.3     
  33 H33            0.8073    -2.5036     0.6435 H       
  34 H34            3.8602     0.4575     1.0111 H       
  35 H35            0.2467     1.5489    -2.5616 H       
  36 H36           -0.9274     2.7215    -2.2986 H       
  37 H37            1.9712     3.0614    -0.5170 H       
  38 H38            3.2550     1.4537     2.4030 H       
  39 H39            5.1425     2.2838     3.7460 H       
  40 H40            5.8457     5.3621     0.8770 H       
  41 H41           -1.6228    -2.1256     1.9281 H       
  42 H42           -1.1816    -2.5573    -2.3004 H       
  43 H43           -1.8038    -4.9312    -2.1256 H       
  44 H44           -2.9805    -5.3382     2.4504 H       
  45 H45           -2.7482    -2.1541     3.4474 H       
  46 H46           -1.7561    -2.0594     4.7999 H       
  47 H47           -3.5180    -6.4246    -0.0086 H       
  48 H48           -1.9406    -6.8855    -0.6925 H       
  49 H49           -2.1303    -6.7108     1.0687 H       
@<TRIPOS>BOND
   1    1    2 ar
   2    1    6 ar
   3    1    7 1
   4    2    3 ar
   5    2   20 1
   6    3    4 ar
   7    3   33 1
   8    4    5 ar
   9    4   17 1
  10    5    6 ar
  11    5   34 1
  12    6   10 1
  13    7    8 2
  14    7    9 am
  15    9   35 1
  16    9   36 1
  17   10   11 1
  18   10   37 1
  19   11   13 ar
  20   11   12 ar
  21   12   16 ar
  22   12   18 1
  23   13   14 ar
  24   13   38 1
  25   14   15 ar
  26   14   39 1
  27   15   16 ar
  28   15   19 1
  29   16   40 1
  30   20   21 1
  31   21   22 ar
  32   21   24 ar
  33   22   23 ar
  34   22   41 1
  35   23   27 ar
  36   23   26 1
  37   24   25 ar
  38   24   42 1
  39   25   27 ar
  40   25   43 1
  41   26   28 am
  42   26   44 1
  43   27   32 1
  44   28   29 am
  45   28   30 2
  46   28   31 2
  47   29   45 1
  48   29   46 1
  49   32   47 1
  50   32   48 1
  51   32   49 1

#	End of record

