#	Name: ASD03092057
#	Creating user name:	WinNT
#	Creation time:	15. 06. 2019 20:31

#	Modifying user name:	WinNT
#	Modification time:	15. 06. 2019 20:31

#	Program:	/corina/corina34_cracker 3.40 0067  02.08.2006

@<TRIPOS>MOLECULE
ASD03092057
  47   50    0    0    0
SMALL
NO_CHARGES


@<TRIPOS>ATOM
   1 N1            -0.1527     0.9729     0.1737 N.am    
   2 C2            -0.3485    -0.3799     0.0703 C.2     
   3 C3            -1.6920    -0.5903    -0.0265 C.2     
   4 C4            -2.3273     0.6611     0.0191 C.2     
   5 N5            -1.4095     1.5905     0.1444 N.2     
   6 N6            -3.7057     0.8796    -0.0515 N.pl3   
   7 C7            -4.2184     2.1706     0.1122 C.ar    
   8 C8            -5.5928     2.3713     0.1785 C.ar    
   9 C9            -6.0956     3.6504     0.3405 C.ar    
  10 C10           -5.2316     4.7272     0.4363 C.ar    
  11 C11           -3.3558     3.2542     0.2146 C.ar    
  12 C12            0.7034    -1.4192     0.0642 C.ar    
  13 C13            1.0364     1.5968     0.2889 C.2     
  14 C14            0.5065    -2.6456     0.7089 C.ar    
  15 C15            1.5147    -3.5867     0.6783 C.ar    
  16 N16            2.6505    -3.3427     0.0530 N.ar    
  17 C17            2.8771    -2.2001    -0.5672 C.ar    
  18 C18            1.9217    -1.2059    -0.5916 C.ar    
  19 C19            4.1956    -1.9811    -1.2634 C.3     
  20 N20            1.0956     2.9431     0.2698 N.am    
  21 O21            2.0551     0.9455     0.4100 O.2     
  22 C22            2.3881     3.6213     0.3951 C.3     
  23 C23            2.1765     5.1358     0.3439 C.3     
  24 C24           -3.8647     4.5290     0.3701 C.ar    
  25 Cl25          -7.8110     3.9044     0.4231 Cl      
  26 C26            3.3975     6.0280     0.5764 C.3     
  27 C27            2.8016     5.8973    -0.8267 C.3     
  28 F28           -6.4357     1.3197     0.0845 F       
  29 H29           -2.1806    -1.5487    -0.1213 H       
  30 H30           -4.3069     0.1360    -0.2140 H       
  31 H31           -5.6258     5.7247     0.5627 H       
  32 H32           -2.2878     3.1007     0.1683 H       
  33 H33           -0.4206    -2.8520     1.2230 H       
  34 H34            1.3724    -4.5360     1.1732 H       
  35 H35            2.1139    -0.2734    -1.1014 H       
  36 H36            4.1217    -2.3204    -2.2966 H       
  37 H37            4.4436    -0.9199    -1.2463 H       
  38 H38            4.9751    -2.5447    -0.7508 H       
  39 H39            0.2824     3.4631     0.1732 H       
  40 H40            2.8499     3.3509     1.3447 H       
  41 H41            3.0388     3.3175    -0.4249 H       
  42 H42            1.2161     5.4892     0.7192 H       
  43 H43           -3.1936     5.3719     0.4445 H       
  44 H44            3.2403     6.9685     1.1043 H       
  45 H45            4.3515     5.5360     0.7658 H       
  46 H46            3.3636     5.3194    -1.5604 H       
  47 H47            2.2524     6.7519    -1.2219 H       
@<TRIPOS>BOND
   1    1    2 1
   2    1   13 am
   3    1    5 1
   4    2    3 2
   5    2   12 1
   6    3    4 1
   7    3   29 1
   8    4    5 2
   9    4    6 1
  10    6    7 1
  11    6   30 1
  12    7    8 ar
  13    7   11 ar
  14    8    9 ar
  15    8   28 1
  16    9   10 ar
  17    9   25 1
  18   10   24 ar
  19   10   31 1
  20   11   24 ar
  21   11   32 1
  22   12   14 ar
  23   12   18 ar
  24   13   20 am
  25   13   21 2
  26   14   15 ar
  27   14   33 1
  28   15   16 ar
  29   15   34 1
  30   16   17 ar
  31   17   18 ar
  32   17   19 1
  33   18   35 1
  34   19   36 1
  35   19   37 1
  36   19   38 1
  37   20   22 1
  38   20   39 1
  39   22   23 1
  40   22   40 1
  41   22   41 1
  42   23   26 1
  43   23   27 1
  44   23   42 1
  45   24   43 1
  46   26   27 1
  47   26   44 1
  48   26   45 1
  49   27   46 1
  50   27   47 1

#	End of record

