#	Name: ASD00170154
#	Creating user name:	WinNT
#	Creation time:	15. 06. 2019 18:31

#	Modifying user name:	WinNT
#	Modification time:	15. 06. 2019 18:31

#	Program:	/corina/corina34_cracker 3.40 0067  02.08.2006

@<TRIPOS>MOLECULE
ASD00170154
  29   30    0    0    0
SMALL
NO_CHARGES


@<TRIPOS>ATOM
   1 C1            -0.0067     1.3213    -0.1236 C.2     
   2 C2             0.0151    -0.0020    -0.1522 C.2     
   3 C3            -1.2927    -0.5980     0.0225 C.2     
   4 C4            -2.2862     0.3404     0.1820 C.2     
   5 S5            -1.6381     1.9158     0.1278 S.3     
   6 N6            -3.6219     0.0465     0.3658 N.pl3   
   7 C7            -1.5319    -2.0408     0.0280 C.2     
   8 C8            -1.5307    -2.7859     1.3060 C.ar    
   9 O9            -1.7321    -2.6288    -1.0193 O.2     
  10 C10            1.2080     2.1994    -0.2797 C.3     
  11 C11            1.2741    -0.8069    -0.3478 C.3     
  12 C12           -1.8498    -4.1445     1.3255 C.ar    
  13 C13           -1.8464    -4.8337     2.5206 C.ar    
  14 C14           -1.5280    -4.1808     3.6983 C.ar    
  15 C15           -1.2112    -2.8339     3.6859 C.ar    
  16 C16           -1.2049    -2.1346     2.4967 C.ar    
  17 H17           -3.9287    -0.8720     0.3093 H       
  18 H18           -4.2541     0.7584     0.5516 H       
  19 H19            1.3560     2.4307    -1.3346 H       
  20 H20            1.0617     3.1245     0.2780 H       
  21 H21            2.0849     1.6783     0.1045 H       
  22 H22            1.7229    -1.0208     0.6222 H       
  23 H23            1.0324    -1.7432    -0.8508 H       
  24 H24            1.9777    -0.2387    -0.9563 H       
  25 H25           -2.0992    -4.6551     0.4071 H       
  26 H26           -2.0931    -5.8850     2.5371 H       
  27 H27           -1.5271    -4.7247     4.6313 H       
  28 H28           -0.9640    -2.3301     4.6086 H       
  29 H29           -0.9574    -1.0834     2.4884 H       
@<TRIPOS>BOND
   1    1    2 2
   2    1   10 1
   3    1    5 1
   4    2    3 1
   5    2   11 1
   6    3    4 2
   7    3    7 1
   8    4    5 1
   9    4    6 1
  10    6   17 1
  11    6   18 1
  12    7    8 1
  13    7    9 2
  14    8   12 ar
  15    8   16 ar
  16   10   19 1
  17   10   20 1
  18   10   21 1
  19   11   22 1
  20   11   23 1
  21   11   24 1
  22   12   13 ar
  23   12   25 1
  24   13   14 ar
  25   13   26 1
  26   14   15 ar
  27   14   27 1
  28   15   16 ar
  29   15   28 1
  30   16   29 1

#	End of record

