#	Name: ASD02038193
#	Creating user name:	WinNT
#	Creation time:	15. 06. 2019 20:16

#	Modifying user name:	WinNT
#	Modification time:	15. 06. 2019 20:16

#	Program:	/corina/corina34_cracker 3.40 0067  02.08.2006

@<TRIPOS>MOLECULE
ASD02038193
  45   46    0    0    0
SMALL
NO_CHARGES


@<TRIPOS>ATOM
   1 C1             0.5354     1.6713     1.0290 C.ar    
   2 C2             0.4610     0.2999     0.8871 C.ar    
   3 C3             1.7684     2.3033     1.0374 C.ar    
   4 C4             2.9317     1.5644     0.9037 C.ar    
   5 C5             2.8693     0.1939     0.7608 C.ar    
   6 C6             1.6304    -0.4488     0.7520 C.ar    
   7 Cl7           -0.9186     2.6060     1.1900 Cl      
   8 Cl8            1.8550     4.0279     1.2156 Cl      
   9 C9             1.5577    -1.9172     0.5997 C.2     
  10 C10            0.3796    -2.5252     0.5917 C.2     
  11 C11            0.3054    -4.0224     0.4364 C.3     
  12 N12           -0.4551    -4.5919     1.5515 N.am    
  13 C13           -0.6517    -5.9233     1.6228 C.2     
  14 O14           -0.1989    -6.6500     0.7638 O.2     
  15 C15           -1.4340    -6.5092     2.7699 C.3     
  16 O16           -1.5044    -7.9288     2.6227 O.3     
  17 C17           -2.1809    -8.6162     3.5815 C.ar    
  18 C18           -2.2876    -9.9967     3.4997 C.ar    
  19 C19           -2.7590    -7.9370     4.6437 C.ar    
  20 C20           -3.4458    -8.6343     5.6181 C.ar    
  21 C21           -3.5579   -10.0158     5.5339 C.ar    
  22 C22           -2.9744   -10.6956     4.4729 C.ar    
  23 N23           -4.2537   -10.7231     6.5207 N.am    
  24 S24           -5.9089   -10.6855     6.5550 S.o2    
  25 O25           -6.2556   -11.5145     7.6557 O.2     
  26 O26           -6.2281    -9.3008     6.5515 O.2     
  27 C27           -6.4116   -11.4584     4.9928 C.3     
  28 H28           -0.5004    -0.1922     0.8809 H       
  29 H29            3.8901     2.0623     0.9109 H       
  30 H30            3.7775    -0.3809     0.6559 H       
  31 H31            2.4642    -2.4948     0.4950 H       
  32 H32           -0.5269    -1.9476     0.6964 H       
  33 H33           -0.1901    -4.2661    -0.5033 H       
  34 H34            1.3132    -4.4378     0.4342 H       
  35 H35           -0.8172    -4.0107     2.2386 H       
  36 H36           -0.9385    -6.2654     3.7097 H       
  37 H37           -2.4417    -6.0937     2.7721 H       
  38 H38           -1.8337   -10.5252     2.6744 H       
  39 H39           -2.6717    -6.8625     4.7090 H       
  40 H40           -3.8953    -8.1053     6.4454 H       
  41 H41           -3.0611   -11.7700     4.4067 H       
  42 H42           -3.7664   -11.2355     7.1848 H       
  43 H43           -5.9548   -12.4448     4.9119 H       
  44 H44           -7.4968   -11.5576     4.9692 H       
  45 H45           -6.0853   -10.8373     4.1586 H       
@<TRIPOS>BOND
   1    1    2 ar
   2    1    3 ar
   3    1    7 1
   4    2    6 ar
   5    2   28 1
   6    3    4 ar
   7    3    8 1
   8    4    5 ar
   9    4   29 1
  10    5    6 ar
  11    5   30 1
  12    6    9 1
  13    9   10 2
  14    9   31 1
  15   10   11 1
  16   10   32 1
  17   11   12 1
  18   11   33 1
  19   11   34 1
  20   12   13 am
  21   12   35 1
  22   13   14 2
  23   13   15 1
  24   15   16 1
  25   15   36 1
  26   15   37 1
  27   16   17 1
  28   17   18 ar
  29   17   19 ar
  30   18   22 ar
  31   18   38 1
  32   19   20 ar
  33   19   39 1
  34   20   21 ar
  35   20   40 1
  36   21   22 ar
  37   21   23 1
  38   22   41 1
  39   23   24 am
  40   23   42 1
  41   24   25 2
  42   24   26 2
  43   24   27 1
  44   27   43 1
  45   27   44 1
  46   27   45 1

#	End of record

