#	Name: ASD08178213
#	Creating user name:	WinNT
#	Creation time:	15. 06. 2019 21:18

#	Modifying user name:	WinNT
#	Modification time:	15. 06. 2019 21:18

#	Program:	/corina/corina34_cracker 3.40 0067  02.08.2006

@<TRIPOS>MOLECULE
ASD08178213
  66   68    0    0    0
SMALL
NO_CHARGES


@<TRIPOS>ATOM
   1 C1            -0.0184     1.5028     0.0103 C.ar    
   2 C2             0.0021    -0.0041     0.0020 C.3     
   3 C3            -0.8070    -0.5316     1.1886 C.3     
   4 C4            -0.7862    -2.0615     1.1802 C.3     
   5 C5            -1.5953    -2.5890     2.3668 C.3     
   6 C6            -1.5749    -4.0958     2.3585 C.2     
   7 N7            -0.7024    -4.8513     2.9464 N.2     
   8 N8            -0.8584    -6.0978     2.8208 N.2     
   9 C9            -1.8706    -6.5111     2.1196 C.2     
  10 S10           -2.7393    -5.1477     1.5527 S.3     
  11 N11           -2.1982    -7.8403     1.8745 N.am    
  12 C12           -1.4351    -8.8275     2.3840 C.2     
  13 C13           -1.7900   -10.2678     2.1183 C.3     
  14 O14           -0.4626    -8.5566     3.0562 O.2     
  15 C15           -0.7862   -11.1655     2.7946 C.ar    
  16 C16           -1.0037   -11.5922     4.0915 C.ar    
  17 C17           -0.0830   -12.4155     4.7118 C.ar    
  18 C18            1.0554   -12.8128     4.0351 C.ar    
  19 C19            1.2724   -12.3869     2.7382 C.ar    
  20 C20            0.3493   -11.5669     2.1163 C.ar    
  21 C21            1.1743     2.2130     0.0027 C.ar    
  22 C22            1.1083     3.5970     0.0108 C.ar    
  23 C23           -0.1539     4.1902     0.0260 C.ar    
  24 N24           -1.2373     3.4276     0.0323 N.ar    
  25 N25           -1.1686     2.1460     0.0193 N.ar    
  26 N26           -0.2747     5.5754     0.0351 N.pl3   
  27 C27           -0.3196   -12.8798     6.1258 C.3     
  28 N28           -1.0672   -14.1395     6.1075 N.am    
  29 C29           -1.3949   -14.7456     7.2659 C.2     
  30 O30           -2.0819   -15.9033     7.2491 O.3     
  31 O31           -1.0702   -14.2471     8.3254 O.2     
  32 C32           -2.4004   -16.4996     8.5341 C.3     
  33 C33           -3.2539   -15.5268     9.3503 C.3     
  34 C34           -3.1772   -17.7993     8.3148 C.3     
  35 C35           -1.1055   -16.8009     9.2914 C.3     
  36 H36           -0.4361    -0.3683    -0.9272 H       
  37 H37            1.0315    -0.3539     0.0799 H       
  38 H38           -0.3688    -0.1674     2.1178 H       
  39 H39           -1.8364    -0.1818     1.1107 H       
  40 H40           -1.2245    -2.4257     0.2510 H       
  41 H41            0.2431    -2.4113     1.2581 H       
  42 H42           -1.1571    -2.2248     3.2960 H       
  43 H43           -2.6247    -2.2392     2.2889 H       
  44 H44           -2.9760    -8.0569     1.3368 H       
  45 H45           -2.7854   -10.4751     2.5111 H       
  46 H46           -1.7775   -10.4529     1.0442 H       
  47 H47           -1.8929   -11.2819     4.6201 H       
  48 H48            1.7752   -13.4555     4.5200 H       
  49 H49            2.1618   -12.6970     2.2098 H       
  50 H50            0.5188   -11.2342     1.1029 H       
  51 H51            2.1257     1.7019    -0.0087 H       
  52 H52            2.0060     4.1975     0.0058 H       
  53 H53            0.5200     6.1316     0.0308 H       
  54 H54           -1.1537     5.9856     0.0457 H       
  55 H55            0.6382   -13.0329     6.6230 H       
  56 H56           -0.8923   -12.1252     6.6650 H       
  57 H57           -1.3264   -14.5375     5.2617 H       
  58 H58           -4.1764   -15.3121     8.8108 H       
  59 H59           -3.4930   -15.9744    10.3149 H       
  60 H60           -2.7005   -14.6008     9.5065 H       
  61 H61           -2.5691   -18.4923     7.7334 H       
  62 H62           -3.4163   -18.2469     9.2795 H       
  63 H63           -4.0997   -17.5846     7.7753 H       
  64 H64           -0.5521   -15.8750     9.4477 H       
  65 H65           -1.3446   -17.2485    10.2561 H       
  66 H66           -0.4975   -17.4939     8.7100 H       
@<TRIPOS>BOND
   1    1    2 1
   2    1   21 ar
   3    1   25 ar
   4    2    3 1
   5    2   36 1
   6    2   37 1
   7    3    4 1
   8    3   38 1
   9    3   39 1
  10    4    5 1
  11    4   40 1
  12    4   41 1
  13    5    6 1
  14    5   42 1
  15    5   43 1
  16    6    7 2
  17    6   10 1
  18    7    8 1
  19    8    9 2
  20    9   10 1
  21    9   11 1
  22   11   12 am
  23   11   44 1
  24   12   13 1
  25   12   14 2
  26   13   15 1
  27   13   45 1
  28   13   46 1
  29   15   16 ar
  30   15   20 ar
  31   16   17 ar
  32   16   47 1
  33   17   18 ar
  34   17   27 1
  35   18   19 ar
  36   18   48 1
  37   19   20 ar
  38   19   49 1
  39   20   50 1
  40   21   22 ar
  41   21   51 1
  42   22   23 ar
  43   22   52 1
  44   23   24 ar
  45   23   26 1
  46   24   25 ar
  47   26   53 1
  48   26   54 1
  49   27   28 1
  50   27   55 1
  51   27   56 1
  52   28   29 am
  53   28   57 1
  54   29   30 1
  55   29   31 2
  56   30   32 1
  57   32   33 1
  58   32   34 1
  59   32   35 1
  60   33   58 1
  61   33   59 1
  62   33   60 1
  63   34   61 1
  64   34   62 1
  65   34   63 1
  66   35   64 1
  67   35   65 1
  68   35   66 1

#	End of record

