#	Name: ASD02030446
#	Creating user name:	WinNT
#	Creation time:	15. 06. 2019 20:15

#	Modifying user name:	WinNT
#	Modification time:	15. 06. 2019 20:15

#	Program:	/corina/corina34_cracker 3.40 0067  02.08.2006

@<TRIPOS>MOLECULE
ASD02030446
  20   21    0    0    0
SMALL
NO_CHARGES


@<TRIPOS>ATOM
   1 N1            -0.0154     1.2845     0.0091 N.2     
   2 N2             0.0021    -0.0041     0.0020 N.pl3   
   3 N3             1.2219    -0.4146    -0.0118 N.2     
   4 N4             2.0092     0.6071    -0.0139 N.2     
   5 C5             1.2368     1.7049    -0.0006 C.2     
   6 C6             1.6975     3.1098     0.0021 C.2     
   7 O7             0.8873     4.0146     0.0143 O.2     
   8 O8             3.0158     3.3863    -0.0089 O.3     
   9 C9            -1.1309    -0.8300     0.0088 C.ar    
  10 C10           -0.9847    -2.2107    -0.0000 C.ar    
  11 C11           -2.1017    -3.0225     0.0072 C.ar    
  12 C12           -3.3673    -2.4603     0.0232 C.ar    
  13 C13           -3.5152    -1.0832     0.0321 C.ar    
  14 C14           -2.4005    -0.2682     0.0302 C.ar    
  15 F15           -4.4590    -3.2561     0.0298 F       
  16 H16            3.2686     4.3196    -0.0066 H       
  17 H17            0.0021    -2.6495    -0.0129 H       
  18 H18           -1.9883    -4.0965    -0.0001 H       
  19 H19           -4.5030    -0.6466     0.0442 H       
  20 H20           -2.5162     0.8055     0.0413 H       
@<TRIPOS>BOND
   1    1    2 1
   2    1    5 2
   3    2    3 1
   4    2    9 1
   5    3    4 2
   6    4    5 1
   7    5    6 1
   8    6    7 2
   9    6    8 1
  10    8   16 1
  11    9   10 ar
  12    9   14 ar
  13   10   11 ar
  14   10   17 1
  15   11   12 ar
  16   11   18 1
  17   12   13 ar
  18   12   15 1
  19   13   14 ar
  20   13   19 1
  21   14   20 1

#	End of record

