#	Name: ASD01916230
#	Creating user name:	WinNT
#	Creation time:	15. 06. 2019 20:06

#	Modifying user name:	WinNT
#	Modification time:	15. 06. 2019 20:06

#	Program:	/corina/corina34_cracker 3.40 0067  02.08.2006

@<TRIPOS>MOLECULE
ASD01916230
  34   36    0    0    0
SMALL
NO_CHARGES


@<TRIPOS>ATOM
   1 C1            -0.0532     1.3263    -0.2459 C.ar    
   2 C2             0.0324    -0.0535    -0.1709 C.ar    
   3 C3             1.2276    -0.6576     0.1725 C.ar    
   4 C4             2.3508     0.1250     0.4439 C.ar    
   5 C5             2.2619     1.5154     0.3672 C.ar    
   6 C6             1.0601     2.1111     0.0228 C.ar    
   7 O7             0.9705     3.4650    -0.0527 O.3     
   8 C8             1.4665     4.0764    -1.1604 C.ar    
   9 C9             1.4012     5.4589    -1.3020 C.ar    
  10 N10            1.8956     6.0163    -2.3950 N.ar    
  11 C11            2.4437     5.2804    -3.3410 C.ar    
  12 N12            2.5239     3.9685    -3.2441 N.ar    
  13 C13            2.0577     3.3366    -2.1795 C.ar    
  14 C14            3.6305    -0.5170     0.8119 C.2     
  15 N15            3.7139    -1.8602     0.8858 N.am    
  16 O16            4.6076     0.1664     1.0480 O.2     
  17 C17            4.9439    -2.4700     1.1285 C.ar    
  18 C18            5.0448    -3.8558     1.0879 C.ar    
  19 C19            6.2713    -4.4493     1.3300 C.ar    
  20 C20            7.3604    -3.6312     1.6059 C.ar    
  21 C21            7.1865    -2.2592     1.6299 C.ar    
  22 N22            6.0052    -1.7234     1.3898 N.ar    
  23 F23            8.5753    -4.1701     1.8484 F       
  24 F24           -1.0546    -0.8115    -0.4336 F       
  25 H25           -0.9880     1.7935    -0.5185 H       
  26 H26            1.2919    -1.7341     0.2310 H       
  27 H27            3.1282     2.1255     0.5763 H       
  28 H28            0.9532     6.0680    -0.5309 H       
  29 H29            2.8381     5.7664    -4.2211 H       
  30 H30            2.1270     2.2613    -2.1066 H       
  31 H31            2.9180    -2.4026     0.7701 H       
  32 H32            4.1774    -4.4613     0.8706 H       
  33 H33            6.3796    -5.5236     1.3055 H       
  34 H34            8.0292    -1.6184     1.8437 H       
@<TRIPOS>BOND
   1    1    2 ar
   2    1    6 ar
   3    1   25 1
   4    2    3 ar
   5    2   24 1
   6    3    4 ar
   7    3   26 1
   8    4    5 ar
   9    4   14 1
  10    5    6 ar
  11    5   27 1
  12    6    7 1
  13    7    8 1
  14    8    9 ar
  15    8   13 ar
  16    9   10 ar
  17    9   28 1
  18   10   11 ar
  19   11   12 ar
  20   11   29 1
  21   12   13 ar
  22   13   30 1
  23   14   15 am
  24   14   16 2
  25   15   17 1
  26   15   31 1
  27   17   18 ar
  28   17   22 ar
  29   18   19 ar
  30   18   32 1
  31   19   20 ar
  32   19   33 1
  33   20   21 ar
  34   20   23 1
  35   21   22 ar
  36   21   34 1

#	End of record

