#	Name: ASD05380039
#	Creating user name:	WinNT
#	Creation time:	15. 06. 2019 20:59

#	Modifying user name:	WinNT
#	Modification time:	15. 06. 2019 20:59

#	Program:	/corina/corina34_cracker 3.40 0067  02.08.2006

@<TRIPOS>MOLECULE
ASD05380039
  48   52    0    0    0
SMALL
NO_CHARGES


@<TRIPOS>ATOM
   1 C1            -0.2261     1.5761    -0.3888 C.ar    
   2 C2            -0.0886     0.1885    -0.6182 C.ar    
   3 C3             0.7603     2.4577    -0.8296 C.ar    
   4 C4             1.8670     1.9638    -1.4891 C.ar    
   5 C5             2.0035     0.6015    -1.7157 C.ar    
   6 C6             1.0405    -0.2856    -1.2878 C.ar    
   7 Cl7            0.5968     4.1634    -0.5513 Cl      
   8 N8            -1.0605    -0.6505    -0.1800 N.2     
   9 C9            -2.1105    -0.2090     0.4432 C.2     
  10 N10           -2.3249     1.1086     0.7063 N.am    
  11 C11           -1.4232     2.0428     0.3240 C.2     
  12 C12           -3.4859     1.5011     1.3842 C.ar    
  13 C13           -4.6408     1.7973     0.6723 C.ar    
  14 C14           -3.4863     1.5893     2.7700 C.ar    
  15 C15           -4.6328     1.9766     3.4356 C.ar    
  16 C16           -5.7795     2.2765     2.7234 C.ar    
  17 C17           -5.7841     2.1841     1.3437 C.ar    
  18 C18           -3.1446    -1.2066     0.8978 C.3     
  19 N19           -3.2466    -2.2870    -0.0864 N.pl3   
  20 C20           -4.4167    -3.0177    -0.1928 C.ar    
  21 N21           -5.4563    -2.7516     0.5902 N.ar    
  22 O22           -1.6021     3.2250     0.5528 O.2     
  23 C23           -4.5330    -4.0535    -1.1357 C.ar    
  24 C24           -5.7441    -4.7622    -1.2005 C.ar    
  25 N25           -6.7323    -4.4327    -0.3748 N.ar    
  26 C26           -6.5824    -3.4468     0.4948 C.ar    
  27 N27           -3.7089    -4.5841    -2.0724 N.2     
  28 C28           -4.3225    -5.5493    -2.6923 C.2     
  29 N29           -5.5824    -5.6985    -2.1902 N.pl3   
  30 C30           -2.7323    -1.7874     2.2518 C.3     
  31 N31           -7.6372    -3.1299     1.3350 N.pl3   
  32 H32            2.6333     2.6431    -1.8322 H       
  33 H33            2.8761     0.2320    -2.2339 H       
  34 H34            1.1584    -1.3436    -1.4702 H       
  35 H35           -4.6448     1.7257    -0.4053 H       
  36 H36           -2.5910     1.3549     3.3268 H       
  37 H37           -4.6337     2.0451     4.5134 H       
  38 H38           -6.6748     2.5792     3.2462 H       
  39 H39           -6.6812     2.4193     0.7902 H       
  40 H40           -4.1103    -0.7105     0.9941 H       
  41 H41           -2.4938    -2.4901    -0.6634 H       
  42 H42           -3.8975    -6.1444    -3.4871 H       
  43 H43           -6.2424    -6.3477    -2.4795 H       
  44 H44           -3.5239    -2.4374     2.6246 H       
  45 H45           -1.8139    -2.3630     2.1359 H       
  46 H46           -2.5652    -0.9756     2.9597 H       
  47 H47           -7.5450    -2.4105     1.9790 H       
  48 H48           -8.4680    -3.6275     1.2793 H       
@<TRIPOS>BOND
   1    1    2 ar
   2    1    3 ar
   3    1   11 1
   4    2    8 1
   5    2    6 ar
   6    3    4 ar
   7    3    7 1
   8    4    5 ar
   9    4   32 1
  10    5    6 ar
  11    5   33 1
  12    6   34 1
  13    8    9 2
  14    9   10 1
  15    9   18 1
  16   10   11 am
  17   10   12 1
  18   11   22 2
  19   12   13 ar
  20   12   14 ar
  21   13   17 ar
  22   13   35 1
  23   14   15 ar
  24   14   36 1
  25   15   16 ar
  26   15   37 1
  27   16   17 ar
  28   16   38 1
  29   17   39 1
  30   18   19 1
  31   18   30 1
  32   18   40 1
  33   19   20 1
  34   19   41 1
  35   20   21 ar
  36   20   23 ar
  37   21   26 ar
  38   23   24 ar
  39   23   27 1
  40   24   25 ar
  41   24   29 1
  42   25   26 ar
  43   26   31 1
  44   27   28 2
  45   28   29 1
  46   28   42 1
  47   29   43 1
  48   30   44 1
  49   30   45 1
  50   30   46 1
  51   31   47 1
  52   31   48 1

#	End of record

