#	Name: ASD03910065
#	Creating user name:	WinNT
#	Creation time:	15. 06. 2019 20:47

#	Modifying user name:	WinNT
#	Modification time:	15. 06. 2019 20:47

#	Program:	/corina/corina34_cracker 3.40 0067  02.08.2006

@<TRIPOS>MOLECULE
ASD03910065
  73   76    0    0    0
SMALL
NO_CHARGES


@<TRIPOS>ATOM
   1 C1            -1.1775    17.4445    -4.8205 C.ar    
   2 C2            -0.2527    18.4674    -4.9242 C.ar    
   3 C3             1.0757    18.2362    -4.6174 C.ar    
   4 C4             1.4830    16.9820    -4.2067 C.ar    
   5 C5             0.5567    15.9526    -4.1016 C.ar    
   6 C6            -0.7777    16.1896    -4.4046 C.ar    
   7 N7             0.9661    14.6808    -3.6859 N.am    
   8 C8             0.1312    13.9062    -2.9653 C.2     
   9 O9            -0.9363    14.3467    -2.5945 O.2     
  10 C10           -0.5754    11.8480    -1.8162 C.ar    
  11 C11           -1.5906    11.1638    -2.4589 C.ar    
  12 C12           -2.5963    10.5671    -1.7235 C.ar    
  13 C13           -2.5872    10.6547    -0.3390 C.ar    
  14 C14           -1.5674    11.3417     0.3035 C.ar    
  15 C15           -0.5640    11.9367    -0.4364 C.ar    
  16 O16           -3.5757    10.0689     0.3866 O.3     
  17 C17           -3.4987    10.1945     1.8080 C.3     
  18 C18           -2.2609     9.5044     2.3206 C.2     
  19 C19           -2.6242    17.7008    -5.1559 C.3     
  20 C20            2.0801    19.3538    -4.7317 C.3     
  21 O21           -1.5852     8.8340     1.5690 O.2     
  22 N22           -1.9049     9.6323     3.6141 N.am    
  23 C23            0.5239    12.4927    -2.6205 C.3     
  24 C24           -0.7598     8.8823     4.1363 C.3     
  25 C25           -1.2019     7.4939     4.5211 C.2     
  26 O26           -2.3552     7.1647     4.3742 O.2     
  27 O27           -0.3146     6.6231     5.0269 O.3     
  28 C28           -0.1994     9.5984     5.3667 C.3     
  29 C29           -3.4762    11.6809     2.2053 C.3     
  30 C30           -4.7197    11.9205     3.0863 C.3     
  31 C31           -5.0564    10.5204     3.6568 C.3     
  32 C32           -4.7545     9.5815     2.4615 C.3     
  33 C33            0.3909    10.9216     4.9524 C.ar    
  34 C34           -0.4114    12.0459     4.8898 C.ar    
  35 C35            0.1273    13.2601     4.5102 C.ar    
  36 C36            1.4745    13.3507     4.1917 C.ar    
  37 C37            2.2774    12.2211     4.2553 C.ar    
  38 C38            1.7351    11.0105     4.6409 C.ar    
  39 O39            2.0067    14.5439     3.8176 O.3     
  40 H40           -0.5686    19.4488    -5.2457 H       
  41 H41            2.5207    16.8019    -3.9679 H       
  42 H42           -1.5005    15.3913    -4.3235 H       
  43 H43            1.8509    14.3567    -3.9163 H       
  44 H44           -1.5975    11.0962    -3.5368 H       
  45 H45           -3.3893    10.0331    -2.2261 H       
  46 H46           -1.5583    11.4116     1.3812 H       
  47 H47            0.2301    12.4717     0.0633 H       
  48 H48           -2.7928    17.5008    -6.2140 H       
  49 H49           -3.2574    17.0464    -4.5569 H       
  50 H50           -2.8686    18.7408    -4.9392 H       
  51 H51            2.1421    19.8851    -3.7820 H       
  52 H52            3.0572    18.9401    -4.9811 H       
  53 H53            1.7674    20.0446    -5.5147 H       
  54 H54           -2.4068    10.2209     4.1994 H       
  55 H55            0.6833    11.9258    -3.5378 H       
  56 H56            1.4436    12.5036    -2.0356 H       
  57 H57            0.0126     8.8183     3.3699 H       
  58 H58           -0.6451     5.7444     5.2589 H       
  59 H59           -1.0012     9.7674     6.0854 H       
  60 H60            0.5749     8.9825     5.8243 H       
  61 H61           -2.5705    11.9030     2.7696 H       
  62 H62           -3.5240    12.3064     1.3139 H       
  63 H63           -4.4874    12.6155     3.8932 H       
  64 H64           -5.5471    12.2962     2.4843 H       
  65 H65           -4.4137    10.2840     4.5048 H       
  66 H66           -6.1076    10.4609     3.9390 H       
  67 H67           -5.5873     9.5793     1.7583 H       
  68 H68           -4.5481     8.5706     2.8131 H       
  69 H69           -1.4602    11.9748     5.1375 H       
  70 H70           -0.4999    14.1379     4.4611 H       
  71 H71            3.3265    12.2891     4.0079 H       
  72 H72            2.3597    10.1308     4.6906 H       
  73 H73            2.3481    15.0703     4.5534 H       
@<TRIPOS>BOND
   1    1    2 ar
   2    1   19 1
   3    1    6 ar
   4    2    3 ar
   5    2   40 1
   6    3    4 ar
   7    3   20 1
   8    4    5 ar
   9    4   41 1
  10    5    6 ar
  11    5    7 1
  12    6   42 1
  13    7    8 am
  14    7   43 1
  15    8    9 2
  16    8   23 1
  17   10   11 ar
  18   10   15 ar
  19   10   23 1
  20   11   12 ar
  21   11   44 1
  22   12   13 ar
  23   12   45 1
  24   13   14 ar
  25   13   16 1
  26   14   15 ar
  27   14   46 1
  28   15   47 1
  29   16   17 1
  30   17   18 1
  31   17   29 1
  32   17   32 1
  33   18   21 2
  34   18   22 am
  35   19   48 1
  36   19   49 1
  37   19   50 1
  38   20   51 1
  39   20   52 1
  40   20   53 1
  41   22   24 1
  42   22   54 1
  43   23   55 1
  44   23   56 1
  45   24   25 1
  46   24   28 1
  47   24   57 1
  48   25   26 2
  49   25   27 1
  50   27   58 1
  51   28   33 1
  52   28   59 1
  53   28   60 1
  54   29   30 1
  55   29   61 1
  56   29   62 1
  57   30   31 1
  58   30   63 1
  59   30   64 1
  60   31   32 1
  61   31   65 1
  62   31   66 1
  63   32   67 1
  64   32   68 1
  65   33   34 ar
  66   33   38 ar
  67   34   35 ar
  68   34   69 1
  69   35   36 ar
  70   35   70 1
  71   36   37 ar
  72   36   39 1
  73   37   38 ar
  74   37   71 1
  75   38   72 1
  76   39   73 1

#	End of record

