#	Name: ASD01880068
#	Creating user name:	WinNT
#	Creation time:	15. 06. 2019 19:39

#	Modifying user name:	WinNT
#	Modification time:	15. 06. 2019 19:39

#	Program:	/corina/corina34_cracker 3.40 0067  02.08.2006

@<TRIPOS>MOLECULE
ASD01880068
  51   53    0    0    0
SMALL
NO_CHARGES


@<TRIPOS>ATOM
   1 C1            -1.5769     2.1941    -1.5162 C.ar    
   2 C2            -1.8864     0.8475    -1.5379 C.ar    
   3 N3            -1.0860    -0.0377    -0.9766 N.ar    
   4 C4             0.0325     0.3206    -0.3772 C.ar    
   5 C5             0.4076     1.6496    -0.3163 C.ar    
   6 C6            -0.4087     2.6091    -0.8948 C.ar    
   7 C7             1.6874     2.0504     0.3711 C.3     
   8 N8             2.7858     2.0419    -0.5982 N.am    
   9 C9             3.0208     3.1632    -1.3972 C.ar    
  10 S10            3.7488     0.7029    -0.7467 S.o2    
  11 C11            2.9278    -0.3072    -2.0101 C.3     
  12 C12            3.6090    -1.6747    -2.0917 C.3     
  13 O13            4.9817     1.2107    -1.2378 O.2     
  14 O14            3.6704     0.0723     0.5243 O.2     
  15 C15            2.6142     4.4204    -0.9692 C.ar    
  16 C16            2.8486     5.5272    -1.7616 C.ar    
  17 C17            3.4869     5.3846    -2.9797 C.ar    
  18 C18            3.8931     4.1342    -3.4090 C.ar    
  19 C19            3.6670     3.0243    -2.6192 C.ar    
  20 C20            2.4078     6.8917    -1.2980 C.3     
  21 C21            3.6194     7.7365    -0.9991 C.ar    
  22 C22            3.9046     8.0994     0.3039 C.ar    
  23 C23            5.0161     8.8743     0.5780 C.ar    
  24 C24            5.8425     9.2859    -0.4508 C.ar    
  25 C25            5.5578     8.9222    -1.7537 C.ar    
  26 C26            4.4488     8.1436    -2.0273 C.ar    
  27 C27            1.5784     7.5601    -2.3963 C.3     
  28 H28           -2.2344     2.9138    -1.9811 H       
  29 H29           -2.7943     0.5162    -2.0198 H       
  30 H30            0.6626    -0.4330     0.0717 H       
  31 H31           -0.1410     3.6549    -0.8627 H       
  32 H32            1.5779     3.0518     0.7874 H       
  33 H33            1.9052     1.3453     1.1733 H       
  34 H34            1.8788    -0.4390    -1.7448 H       
  35 H35            2.9981     0.1920    -2.9766 H       
  36 H36            3.1157    -2.2817    -2.8509 H       
  37 H37            4.6580    -1.5429    -2.3570 H       
  38 H38            3.5387    -2.1739    -1.1253 H       
  39 H39            2.1150     4.5324    -0.0181 H       
  40 H40            3.6683     6.2516    -3.5977 H       
  41 H41            4.3911     4.0262    -4.3612 H       
  42 H42            3.9848     2.0482    -2.9548 H       
  43 H43            1.8034     6.7915    -0.3965 H       
  44 H44            3.2589     7.7779     1.1077 H       
  45 H45            5.2385     9.1585     1.5960 H       
  46 H46            6.7105     9.8919    -0.2367 H       
  47 H47            6.2034     9.2440    -2.5575 H       
  48 H48            4.2264     7.8595    -3.0453 H       
  49 H49            2.1827     7.6604    -3.2978 H       
  50 H50            0.7020     6.9492    -2.6124 H       
  51 H51            1.2595     8.5471    -2.0610 H       
@<TRIPOS>BOND
   1    1    2 ar
   2    1    6 ar
   3    1   28 1
   4    2    3 ar
   5    2   29 1
   6    3    4 ar
   7    4    5 ar
   8    4   30 1
   9    5    6 ar
  10    5    7 1
  11    6   31 1
  12    7    8 1
  13    7   32 1
  14    7   33 1
  15    8    9 1
  16    8   10 am
  17    9   15 ar
  18    9   19 ar
  19   10   11 1
  20   10   13 2
  21   10   14 2
  22   11   12 1
  23   11   34 1
  24   11   35 1
  25   12   36 1
  26   12   37 1
  27   12   38 1
  28   15   16 ar
  29   15   39 1
  30   16   17 ar
  31   16   20 1
  32   17   18 ar
  33   17   40 1
  34   18   19 ar
  35   18   41 1
  36   19   42 1
  37   20   21 1
  38   20   27 1
  39   20   43 1
  40   21   22 ar
  41   21   26 ar
  42   22   23 ar
  43   22   44 1
  44   23   24 ar
  45   23   45 1
  46   24   25 ar
  47   24   46 1
  48   25   26 ar
  49   25   47 1
  50   26   48 1
  51   27   49 1
  52   27   50 1
  53   27   51 1

#	End of record

