#	Name: ASD01840107
#	Creating user name:	WinNT
#	Creation time:	15. 06. 2019 19:37

#	Modifying user name:	WinNT
#	Modification time:	15. 06. 2019 19:37

#	Program:	/corina/corina34_cracker 3.40 0067  02.08.2006

@<TRIPOS>MOLECULE
ASD01840107
  48   51    0    0    0
SMALL
NO_CHARGES


@<TRIPOS>ATOM
   1 N1             1.0108    -0.7480    -1.1719 N.ar    
   2 C2            -0.0759    -0.0632    -0.8744 C.ar    
   3 C3            -0.0106     1.2923    -0.6104 C.ar    
   4 C4             1.2168     1.9328    -0.6610 C.ar    
   5 C5             2.3430     1.1797    -0.9779 C.ar    
   6 C6             2.1974    -0.1764    -1.2303 C.ar    
   7 C7            -1.4073    -0.7674    -0.8221 C.3     
   8 O8             3.5683     1.7646    -1.0394 O.3     
   9 C9             3.6521     3.1374    -0.6516 C.3     
  10 C10            5.0738     3.4475    -0.1776 C.3     
  11 C11            5.1510     4.9106     0.2697 C.3     
  12 N12            4.6809     5.7662    -0.8283 N.pl3   
  13 C13            3.3631     5.4968    -1.4194 C.3     
  14 C14            3.3060     4.0271    -1.8478 C.3     
  15 C15            5.4623     6.8037    -1.2954 C.2     
  16 C16            6.0960     7.6859    -0.3903 C.2     
  17 N17            6.9886     8.8258    -2.2919 N.2     
  18 C18            6.3812     7.9744    -3.0716 C.2     
  19 N19            5.6320     6.9815    -2.5951 N.2     
  20 C20            6.5274     8.1230    -4.5641 C.3     
  21 C21            6.1321     7.7797     0.9873 C.2     
  22 C22            6.9387     8.8759     1.2970 C.2     
  23 C23            7.3712     9.4199     0.1288 C.2     
  24 N24            6.8699     8.7111    -0.8997 N.pl3   
  25 C25            5.4340     6.8729     1.9678 C.3     
  26 H26           -0.9059     1.8455    -0.3680 H       
  27 H27            1.2974     2.9908    -0.4596 H       
  28 H28            3.0651    -0.7703    -1.4769 H       
  29 H29           -1.5824    -1.1388     0.1876 H       
  30 H30           -2.1986    -0.0692    -1.0947 H       
  31 H31           -1.4037    -1.6036    -1.5212 H       
  32 H32            2.9491     3.3294     0.1589 H       
  33 H33            5.3282     2.7972     0.6594 H       
  34 H34            5.7747     3.2796    -0.9953 H       
  35 H35            4.5185     5.0589     1.1450 H       
  36 H36            6.1824     5.1640     0.5145 H       
  37 H37            2.5848     5.6929    -0.6819 H       
  38 H38            3.2149     6.1369    -2.2891 H       
  39 H39            4.0235     3.8538    -2.6498 H       
  40 H40            2.3020     3.7894    -2.1995 H       
  41 H41            7.1637     8.9804    -4.7833 H       
  42 H42            6.9787     7.2207    -4.9767 H       
  43 H43            5.5454     8.2755    -5.0120 H       
  44 H44            7.1765     9.2297     2.2893 H       
  45 H45            8.0144    10.2830     0.0401 H       
  46 H46            6.0419     5.9840     2.1369 H       
  47 H47            5.2903     7.3997     2.9112 H       
  48 H48            4.4650     6.5790     1.5645 H       
@<TRIPOS>BOND
   1    1    2 ar
   2    1    6 ar
   3    2    3 ar
   4    2    7 1
   5    3    4 ar
   6    3   26 1
   7    4    5 ar
   8    4   27 1
   9    5    6 ar
  10    5    8 1
  11    6   28 1
  12    7   29 1
  13    7   30 1
  14    7   31 1
  15    8    9 1
  16    9   10 1
  17    9   14 1
  18    9   32 1
  19   10   11 1
  20   10   33 1
  21   10   34 1
  22   11   12 1
  23   11   35 1
  24   11   36 1
  25   12   13 1
  26   12   15 1
  27   13   14 1
  28   13   37 1
  29   13   38 1
  30   14   39 1
  31   14   40 1
  32   15   19 2
  33   15   16 1
  34   16   21 2
  35   16   24 1
  36   17   18 2
  37   17   24 1
  38   18   19 1
  39   18   20 1
  40   20   41 1
  41   20   42 1
  42   20   43 1
  43   21   22 1
  44   21   25 1
  45   22   23 2
  46   22   44 1
  47   23   24 1
  48   23   45 1
  49   25   46 1
  50   25   47 1
  51   25   48 1

#	End of record

