#	Name: ASD01670037
#	Creating user name:	WinNT
#	Creation time:	15. 06. 2019 19:22

#	Modifying user name:	WinNT
#	Modification time:	15. 06. 2019 19:22

#	Program:	/corina/corina34_cracker 3.40 0067  02.08.2006

@<TRIPOS>MOLECULE
ASD01670037
  51   54    0    0    0
SMALL
NO_CHARGES


@<TRIPOS>ATOM
   1 C1             6.1338    -0.7575    -1.0463 C.ar    
   2 C2             7.4334    -0.9090    -0.5967 C.ar    
   3 C3             5.4463     0.4144    -0.8099 C.ar    
   4 C4             5.4095     4.0986    -2.0903 C.ar    
   5 C5             8.0541     0.1180     0.0953 C.ar    
   6 C6             5.4254     4.6882    -3.3430 C.ar    
   7 C7             6.0647     1.4565    -0.1121 C.ar    
   8 C8             4.2278     3.9795    -1.3923 C.ar    
   9 C9             3.0371     4.4543    -1.9498 C.ar    
  10 C10            7.3780     1.2908     0.3365 C.ar    
  11 C11            4.2534     5.1653    -3.9093 C.ar    
  12 C12            3.0533     5.0502    -3.2185 C.ar    
  13 C13            5.5899     2.7935     0.2793 C.2     
  14 C14            6.5354     3.4593     0.9427 C.2     
  15 C15            4.2187     3.3373    -0.0290 C.3     
  16 C16            1.7700     4.3285    -1.2070 C.2     
  17 C17            4.3130     7.1871    -9.2007 C.2     
  18 C18            7.7540     2.5715     1.0411 C.3     
  19 C19            2.0058     6.4237    -4.8493 C.3     
  20 C20            3.0489     5.8757    -5.8326 C.3     
  21 C21            4.1553     6.2343    -8.0439 C.3     
  22 C22            3.2090     6.8431    -7.0071 C.3     
  23 N23            6.4206     4.7398     1.4524 N.pl3   
  24 O24            1.4566     5.1742    -0.3927 O.2     
  25 O25            3.7286     8.2446    -9.1964 O.2     
  26 O26            0.9593     3.2758    -1.4311 O.3     
  27 O27            5.1028     6.8610   -10.2359 O.3     
  28 O28            1.8925     5.5041    -3.7577 O.3     
  29 O29            4.2950     5.7480    -5.1390 O.3     
  30 O30            5.2139     5.4621     1.2874 O.3     
  31 H31            5.6565    -1.5599    -1.5892 H       
  32 H32            7.9650    -1.8299    -0.7855 H       
  33 H33            4.4320     0.5272    -1.1634 H       
  34 H34            6.3275     3.7267    -1.6600 H       
  35 H35            9.0686    -0.0026     0.4456 H       
  36 H36            6.3568     4.7768    -3.8825 H       
  37 H37            3.9453     4.0799     0.7206 H       
  38 H38            3.4936     2.5235    -0.0155 H       
  39 H39            7.9916     2.3713     2.0859 H       
  40 H40            8.6030     3.0403     0.5437 H       
  41 H41            2.3261     7.3973    -4.4783 H       
  42 H42            1.0426     6.5195    -5.3505 H       
  43 H43            2.7304     4.9004    -6.2006 H       
  44 H44            3.7425     5.2917    -8.4033 H       
  45 H45            5.1281     6.0540    -7.5864 H       
  46 H46            2.2363     7.0234    -7.4646 H       
  47 H47            3.6218     7.7857    -6.6477 H       
  48 H48            7.1668     5.1432     1.9230 H       
  49 H49            0.1059     3.2742    -0.9764 H       
  50 H50            5.1726     7.5043   -10.9546 H       
  51 H51            5.2287     6.3470     1.6769 H       
@<TRIPOS>BOND
   1    1    2 ar
   2    1    3 ar
   3    1   31 1
   4    2    5 ar
   5    2   32 1
   6    3    7 ar
   7    3   33 1
   8    4    6 ar
   9    4    8 ar
  10    4   34 1
  11    5   10 ar
  12    5   35 1
  13    6   11 ar
  14    6   36 1
  15    7   10 ar
  16    7   13 1
  17    8    9 ar
  18    8   15 1
  19    9   12 ar
  20    9   16 1
  21   10   18 1
  22   11   12 ar
  23   11   29 1
  24   12   28 1
  25   13   14 2
  26   13   15 1
  27   14   18 1
  28   14   23 1
  29   15   37 1
  30   15   38 1
  31   16   24 2
  32   16   26 1
  33   17   21 1
  34   17   25 2
  35   17   27 1
  36   18   39 1
  37   18   40 1
  38   19   20 1
  39   19   28 1
  40   19   41 1
  41   19   42 1
  42   20   22 1
  43   20   29 1
  44   20   43 1
  45   21   22 1
  46   21   44 1
  47   21   45 1
  48   22   46 1
  49   22   47 1
  50   23   30 1
  51   23   48 1
  52   26   49 1
  53   27   50 1
  54   30   51 1

#	End of record

