#	Name: ASD01884051
#	Creating user name:	WinNT
#	Creation time:	15. 06. 2019 19:47

#	Modifying user name:	WinNT
#	Modification time:	15. 06. 2019 19:47

#	Program:	/corina/corina34_cracker 3.40 0067  02.08.2006

@<TRIPOS>MOLECULE
ASD01884051
  44   47    0    0    0
SMALL
NO_CHARGES


@<TRIPOS>ATOM
   1 C1            -1.3652     2.1002     1.4788 C.3     
   2 C2            -0.6870     0.8766     0.8593 C.3     
   3 H3            -0.0367     0.4085     1.5984 H       
   4 O4             0.0898     1.2829    -0.2692 O.3     
   5 C5             1.3856     1.6257    -0.0361 C.ar    
   6 C6             1.7128     2.9397     0.2692 C.ar    
   7 F7             0.7446     3.8796     0.3351 F       
   8 C8             3.0313     3.2862     0.5065 C.ar    
   9 C9             4.0238     2.3234     0.4396 C.ar    
  10 F10            5.3105     2.6636     0.6716 F       
  11 C11            3.6995     1.0122     0.1357 C.ar    
  12 C12            2.3816     0.6607    -0.0975 C.ar    
  13 F13            2.0651    -0.6198    -0.3894 F       
  14 C14           -1.7370    -0.1099     0.4175 C.2     
  15 C15           -2.6111     0.2141    -0.6344 C.2     
  16 C16           -3.5533    -0.6657    -1.0339 C.2     
  17 N17           -3.6704    -1.8796    -0.4236 N.pl3   
  18 C18           -4.4991    -2.9442    -0.6007 C.2     
  19 C19           -5.6035    -3.0536    -1.6202 C.3     
  20 C20           -5.0475    -3.6571    -2.9116 C.3     
  21 C21           -5.6019    -5.0128    -3.3538 C.3     
  22 C22           -5.9896    -3.7429    -4.1141 C.3     
  23 N23           -4.1619    -3.8553     0.2751 N.2     
  24 N24           -3.1780    -3.4412     0.9936 N.2     
  25 C25           -2.8307    -2.2245     0.6070 C.2     
  26 C26           -1.8389    -1.3193     1.0314 C.2     
  27 C27           -0.9051    -1.6841     2.1566 C.3     
  28 F28           -1.0051    -0.7288     3.1738 F       
  29 F29           -1.2526    -2.9415     2.6620 F       
  30 F30            0.4092    -1.7205     1.6787 F       
  31 H31           -0.6056     2.8137     1.7984 H       
  32 H32           -2.0154     2.5683     0.7397 H       
  33 H33           -1.9576     1.7903     2.3396 H       
  34 H34            3.2863     4.3085     0.7437 H       
  35 H35            4.4752     0.2625     0.0844 H       
  36 H36           -2.5286     1.1725    -1.1254 H       
  37 H37           -4.2199    -0.4062    -1.8431 H       
  38 H38           -6.3949    -3.6943    -1.2312 H       
  39 H39           -6.0070    -2.0623    -1.8267 H       
  40 H40           -3.9951    -3.4543    -3.1102 H       
  41 H41           -4.9142    -5.7023    -3.8433 H       
  42 H42           -6.3628    -5.4748    -2.7247 H       
  43 H43           -7.0055    -3.3695    -3.9852 H       
  44 H44           -5.5569    -3.5970    -5.1038 H       
@<TRIPOS>BOND
   1    1    2 1
   2    1   31 1
   3    1   32 1
   4    1   33 1
   5    2    3 1
   6    2    4 1
   7    2   14 1
   8    4    5 1
   9    5   12 ar
  10    5    6 ar
  11    6    7 1
  12    6    8 ar
  13    8    9 ar
  14    8   34 1
  15    9   10 1
  16    9   11 ar
  17   11   12 ar
  18   11   35 1
  19   12   13 1
  20   14   26 2
  21   14   15 1
  22   15   16 2
  23   15   36 1
  24   16   17 1
  25   16   37 1
  26   17   25 1
  27   17   18 1
  28   18   19 1
  29   18   23 2
  30   19   20 1
  31   19   38 1
  32   19   39 1
  33   20   22 1
  34   20   21 1
  35   20   40 1
  36   21   22 1
  37   21   41 1
  38   21   42 1
  39   22   43 1
  40   22   44 1
  41   23   24 1
  42   24   25 2
  43   25   26 1
  44   26   27 1
  45   27   28 1
  46   27   29 1
  47   27   30 1

#	End of record

