#	Name: ASD03090775
#	Creating user name:	WinNT
#	Creation time:	15. 06. 2019 20:29

#	Modifying user name:	WinNT
#	Modification time:	15. 06. 2019 20:29

#	Program:	/corina/corina34_cracker 3.40 0067  02.08.2006

@<TRIPOS>MOLECULE
ASD03090775
  39   41    0    0    0
SMALL
NO_CHARGES


@<TRIPOS>ATOM
   1 C1            -0.0157     1.3058     0.0092 C.2     
   2 C2             0.0021    -0.0041     0.0020 C.2     
   3 C3            -1.2926    -0.7753     0.0102 C.3     
   4 C4            -1.3187    -1.7407    -1.1764 C.3     
   5 C5            -1.2044    -0.9256    -2.4507 C.2     
   6 O6            -2.0116    -0.0619    -2.7190 O.2     
   7 N7            -0.1702    -1.1975    -3.2746 N.am    
   8 C8             0.7295    -2.1467    -2.9926 C.2     
   9 O9             1.6288    -2.3248    -3.7898 O.2     
  10 N10            0.7115    -2.9138    -1.8966 N.am    
  11 C11           -0.2470    -2.7911    -0.9540 C.2     
  12 O12           -0.2503    -3.4931     0.0344 O.2     
  13 C13            1.7628    -3.9177    -1.7145 C.3     
  14 C14           -2.6561    -2.4352    -1.1824 C.ar    
  15 C15           -3.5931    -2.1387    -0.2106 C.ar    
  16 C16           -4.8201    -2.7759    -0.2160 C.ar    
  17 C17           -5.1099    -3.7090    -1.1936 C.ar    
  18 C18           -4.1729    -4.0050    -2.1662 C.ar    
  19 C19           -2.9480    -3.3648    -2.1633 C.ar    
  20 C20           -4.4887    -5.0227    -3.2318 C.3     
  21 N21           -5.6893    -4.8322    -4.0495 N.2     
  22 N22           -4.6195    -4.5684    -4.6184 N.2     
  23 C23           -3.9994    -6.4487    -2.9707 C.3     
  24 F24           -4.5782    -6.9319    -1.7922 F       
  25 F25           -4.3660    -7.2709    -4.0415 F       
  26 F26           -2.6066    -6.4471    -2.8395 F       
  27 H27            0.9122     1.8585     0.0033 H       
  28 H28           -0.9582     1.8330     0.0166 H       
  29 H29            0.9446    -0.5313    -0.0098 H       
  30 H30           -1.3737    -1.3393     0.9394 H       
  31 H31           -2.1295    -0.0812    -0.0676 H       
  32 H32           -0.0763    -0.6893    -4.0954 H       
  33 H33            2.4484    -3.8835    -2.5612 H       
  34 H34            2.3099    -3.7083    -0.7953 H       
  35 H35            1.3123    -4.9083    -1.6516 H       
  36 H36           -3.3667    -1.4096     0.5533 H       
  37 H37           -5.5520    -2.5447     0.5438 H       
  38 H38           -6.0680    -4.2073    -1.1974 H       
  39 H39           -2.2161    -3.5959    -2.9231 H       
@<TRIPOS>BOND
   1    1    2 2
   2    1   27 1
   3    1   28 1
   4    2    3 1
   5    2   29 1
   6    3    4 1
   7    3   30 1
   8    3   31 1
   9    4    5 1
  10    4   14 1
  11    4   11 1
  12    5    6 2
  13    5    7 am
  14    7    8 am
  15    7   32 1
  16    8    9 2
  17    8   10 am
  18   10   11 am
  19   10   13 1
  20   11   12 2
  21   13   33 1
  22   13   34 1
  23   13   35 1
  24   14   15 ar
  25   14   19 ar
  26   15   16 ar
  27   15   36 1
  28   16   17 ar
  29   16   37 1
  30   17   18 ar
  31   17   38 1
  32   18   19 ar
  33   18   20 1
  34   19   39 1
  35   20   21 1
  36   20   23 1
  37   20   22 1
  38   21   22 2
  39   23   24 1
  40   23   25 1
  41   23   26 1

#	End of record

