#	Name: ASD01880056
#	Creating user name:	WinNT
#	Creation time:	15. 06. 2019 19:39

#	Modifying user name:	WinNT
#	Modification time:	15. 06. 2019 19:39

#	Program:	/corina/corina34_cracker 3.40 0067  02.08.2006

@<TRIPOS>MOLECULE
ASD01880056
  37   40    0    0    0
SMALL
NO_CHARGES


@<TRIPOS>ATOM
   1 C1            -0.0167     1.3817     0.0096 C.ar    
   2 C2             0.0021    -0.0041     0.0020 C.ar    
   3 C3             1.1999    -0.6908    -0.0126 C.ar    
   4 C4             2.3970     0.0098    -0.0202 C.ar    
   5 C5             2.3793     1.4138    -0.0130 C.ar    
   6 C6             1.1636     2.0951     0.0022 C.ar    
   7 N7             3.6177    -0.6568    -0.0344 N.pl3   
   8 C8             4.7878     0.0399    -0.0415 C.2     
   9 N9             4.8085     1.4273    -0.0344 N.am    
  10 C10            3.6625     2.1388    -0.0209 C.2     
  11 N11            3.9273    -2.0244    -0.0439 N.2     
  12 C12            5.2376    -2.1526    -0.0563 C.2     
  13 C13            5.8055    -0.8673    -0.0551 C.2     
  14 C14            6.0940     2.1298    -0.0421 C.3     
  15 O15            3.6878     3.3551    -0.0151 O.2     
  16 C16           -1.2967    -0.7684     0.0103 C.3     
  17 C17            5.9859    -3.4340    -0.0698 C.ar    
  18 C18            5.2978    -4.6456    -0.0705 C.ar    
  19 C19            5.9988    -5.8345    -0.0830 C.ar    
  20 C20            7.3820    -5.8246    -0.0943 C.ar    
  21 C21            8.0702    -4.6247    -0.0931 C.ar    
  22 C22            7.3792    -3.4300    -0.0874 C.ar    
  23 H23           -0.9609     1.9059     0.0169 H       
  24 H24            1.2047    -1.7708    -0.0177 H       
  25 H25            1.1460     3.1750     0.0074 H       
  26 H26            6.8610    -0.6387    -0.0640 H       
  27 H27            6.4037     2.3094    -1.0716 H       
  28 H28            5.9906     3.0823     0.4776 H       
  29 H29            6.8441     1.5204     0.4619 H       
  30 H30           -1.6196    -0.9471    -1.0154 H       
  31 H31           -1.1536    -1.7224     0.5176 H       
  32 H32           -2.0563    -0.1884     0.5344 H       
  33 H33            4.2179    -4.6545    -0.0610 H       
  34 H34            5.4665    -6.7742    -0.0836 H       
  35 H35            7.9266    -6.7572    -0.1037 H       
  36 H36            9.1501    -4.6228    -0.1016 H       
  37 H37            7.9175    -2.4937    -0.0869 H       
@<TRIPOS>BOND
   1    1    2 ar
   2    1    6 ar
   3    1   23 1
   4    2    3 ar
   5    2   16 1
   6    3    4 ar
   7    3   24 1
   8    4    5 ar
   9    4    7 1
  10    5    6 ar
  11    5   10 1
  12    6   25 1
  13    7    8 1
  14    7   11 1
  15    8    9 1
  16    8   13 2
  17    9   10 am
  18    9   14 1
  19   10   15 2
  20   11   12 2
  21   12   13 1
  22   12   17 1
  23   13   26 1
  24   14   27 1
  25   14   28 1
  26   14   29 1
  27   16   30 1
  28   16   31 1
  29   16   32 1
  30   17   18 ar
  31   17   22 ar
  32   18   19 ar
  33   18   33 1
  34   19   20 ar
  35   19   34 1
  36   20   21 ar
  37   20   35 1
  38   21   22 ar
  39   21   36 1
  40   22   37 1

#	End of record

