#	Name: ASD01810849
#	Creating user name:	WinNT
#	Creation time:	15. 06. 2019 19:25

#	Modifying user name:	WinNT
#	Modification time:	15. 06. 2019 19:25

#	Program:	/corina/corina34_cracker 3.40 0067  02.08.2006

@<TRIPOS>MOLECULE
ASD01810849
  65   70    0    0    0
SMALL
NO_CHARGES


@<TRIPOS>ATOM
   1 C1             0.7541    -0.5441     1.2201 C.3     
   2 C2             0.0021    -0.0041     0.0020 C.3     
   3 C3             0.7055    -0.4635    -1.2766 C.3     
   4 C4             2.1409     0.0660    -1.2875 C.3     
   5 C5             2.8930    -0.4740    -0.0694 C.3     
   6 C6             2.1895    -0.0145     1.2092 C.3     
   7 N7            -1.3761    -0.5125     0.0124 N.3     
   8 C8            -2.1596     0.0558    -1.1072 C.3     
   9 C9            -3.6058     0.2352    -0.6012 C.3     
  10 C10           -3.5674    -0.2146     0.8647 C.3     
  11 C11           -2.0846    -0.1070     1.2560 C.3     
  12 C12           -4.4372     0.6406     1.7376 C.ar    
  13 C13           -5.3492    -0.2300     2.3298 C.ar    
  14 N14           -5.1172    -1.5386     1.8996 N.am    
  15 C15           -4.0858    -1.6138     1.0351 C.2     
  16 C16           -4.4743     1.9885     2.0145 C.ar    
  17 C17           -5.4233     2.4911     2.8874 C.ar    
  18 C18           -6.3334     1.6362     3.4810 C.ar    
  19 C19           -6.3005     0.2844     3.2068 C.ar    
  20 C20           -5.9037    -2.6946     2.3368 C.3     
  21 C21           -7.0679    -2.8932     1.4007 C.ar    
  22 C22           -6.8753    -3.5270     0.1837 C.ar    
  23 C23           -7.9406    -3.7105    -0.6778 C.ar    
  24 C24           -9.2080    -3.2574    -0.3197 C.ar    
  25 C25           -9.3950    -2.6215     0.9054 C.ar    
  26 C26           -8.3260    -2.4473     1.7614 C.ar    
  27 F27           -5.6449    -3.9656    -0.1614 F       
  28 C28          -10.3550    -3.4463    -1.2435 C.2     
  29 C29          -10.3140    -4.0485    -2.4670 C.2     
  30 N30          -11.5607    -4.0164    -2.9794 N.pl3   
  31 N31          -12.3975    -3.3800    -2.0548 N.2     
  32 C32          -11.6843    -3.0417    -1.0134 C.2     
  33 C33          -11.9691    -4.5542    -4.2795 C.3     
  34 O34           -3.6598    -2.6152     0.4997 O.2     
  35 H35            0.2530    -0.2167     2.1310 H       
  36 H36            0.7685    -1.6334     1.1847 H       
  37 H37           -0.0123     1.0853     0.0374 H       
  38 H38            0.7199    -1.5529    -1.3120 H       
  39 H39            0.1698    -0.0788    -2.1444 H       
  40 H40            2.6421    -0.2613    -2.1984 H       
  41 H41            2.1266     1.1554    -1.2521 H       
  42 H42            2.9073    -1.5633    -0.1048 H       
  43 H43            3.9156    -0.0967    -0.0772 H       
  44 H44            2.1752     1.0748     1.2446 H       
  45 H45            2.7253    -0.3992     2.0770 H       
  46 H46           -1.7454     1.0212    -1.3979 H       
  47 H47           -2.1451    -0.6284    -1.9556 H       
  48 H48           -3.9046     1.2812    -0.6694 H       
  49 H49           -4.2885    -0.3933    -1.1731 H       
  50 H50           -1.8512    -0.7905     2.0724 H       
  51 H51           -1.8313     0.9181     1.5265 H       
  52 H52           -3.7623     2.6545     1.5498 H       
  53 H53           -5.4524     3.5486     3.1049 H       
  54 H54           -7.0737     2.0285     4.1625 H       
  55 H55           -7.0146    -0.3771     3.6746 H       
  56 H56           -5.2755    -3.5853     2.3293 H       
  57 H57           -6.2751    -2.5205     3.3467 H       
  58 H58           -7.7904    -4.2039    -1.6267 H       
  59 H59          -10.3760    -2.2682     1.1869 H       
  60 H60           -8.4711    -1.9545     2.7114 H       
  61 H61           -9.4409    -4.4737    -2.9397 H       
  62 H62          -12.0493    -2.5346    -0.1325 H       
  63 H63          -12.2742    -5.5941    -4.1629 H       
  64 H64          -12.8047    -3.9717    -4.6673 H       
  65 H65          -11.1322    -4.4969    -4.9755 H       
@<TRIPOS>BOND
   1    1    2 1
   2    1    6 1
   3    1   35 1
   4    1   36 1
   5    2    3 1
   6    2    7 1
   7    2   37 1
   8    3    4 1
   9    3   38 1
  10    3   39 1
  11    4    5 1
  12    4   40 1
  13    4   41 1
  14    5    6 1
  15    5   42 1
  16    5   43 1
  17    6   44 1
  18    6   45 1
  19    7    8 1
  20    7   11 1
  21    8    9 1
  22    8   46 1
  23    8   47 1
  24    9   10 1
  25    9   48 1
  26    9   49 1
  27   10   11 1
  28   10   12 1
  29   10   15 1
  30   11   50 1
  31   11   51 1
  32   12   16 ar
  33   12   13 ar
  34   13   14 1
  35   13   19 ar
  36   14   15 am
  37   14   20 1
  38   15   34 2
  39   16   17 ar
  40   16   52 1
  41   17   18 ar
  42   17   53 1
  43   18   19 ar
  44   18   54 1
  45   19   55 1
  46   20   21 1
  47   20   56 1
  48   20   57 1
  49   21   22 ar
  50   21   26 ar
  51   22   23 ar
  52   22   27 1
  53   23   24 ar
  54   23   58 1
  55   24   25 ar
  56   24   28 1
  57   25   26 ar
  58   25   59 1
  59   26   60 1
  60   28   29 2
  61   28   32 1
  62   29   30 1
  63   29   61 1
  64   30   31 1
  65   30   33 1
  66   31   32 2
  67   32   62 1
  68   33   63 1
  69   33   64 1
  70   33   65 1

#	End of record

