#	Name: ASD01911292
#	Creating user name:	WinNT
#	Creation time:	15. 06. 2019 19:57

#	Modifying user name:	WinNT
#	Modification time:	15. 06. 2019 19:57

#	Program:	/corina/corina34_cracker 3.40 0067  02.08.2006

@<TRIPOS>MOLECULE
ASD01911292
  40   42    0    0    0
SMALL
NO_CHARGES


@<TRIPOS>ATOM
   1 N1            -0.0035     1.3812     0.2119 N.2     
   2 N2             0.0016    -0.0034     0.0011 N.pl3   
   3 C3             1.2358     1.8189     0.1322 C.2     
   4 C4             2.0746     0.7237    -0.1331 C.2     
   5 C5             1.2922    -0.3914    -0.2101 C.2     
   6 C6             1.7585    -1.7700    -0.4745 C.ar    
   7 C7             1.6719     3.2285     0.2940 C.ar    
   8 C8             0.7339     4.2248     0.5557 C.ar    
   9 C9            -1.1720    -0.8803     0.0071 C.3     
  10 C10           -1.6613    -1.0744    -1.4050 C.2     
  11 O11           -2.7334    -1.8459    -1.6437 O.3     
  12 O12           -1.0885    -0.5355    -2.3223 O.2     
  13 C13           -3.1484    -1.9879    -3.0279 C.3     
  14 C14            3.1006    -1.9999    -0.7765 C.ar    
  15 C15            1.1448     5.5338     0.7058 C.ar    
  16 C16            2.4852     5.8574     0.5964 C.ar    
  17 C17            3.4207     4.8722     0.3367 C.ar    
  18 C18            3.0213     3.5591     0.1906 C.ar    
  19 C19            3.5227    -3.2944    -1.0215 C.ar    
  20 C20            2.5875    -4.3205    -0.9566 C.ar    
  21 C21            1.2701    -4.0201    -0.6510 C.ar    
  22 N22            0.8968    -2.7788    -0.4168 N.ar    
  23 F23            2.9594    -5.5982    -1.1898 F       
  24 C24            4.9640    -3.5854    -1.3518 C.3     
  25 H25            3.1472     0.7584    -0.2550 H       
  26 H26           -0.3130     3.9733     0.6406 H       
  27 H27           -0.9016    -1.8462     0.4339 H       
  28 H28           -1.9615    -0.4266     0.6061 H       
  29 H29           -4.0238    -2.6352    -3.0802 H       
  30 H30           -3.3964    -1.0077    -3.4352 H       
  31 H31           -2.3364    -2.4273    -3.6074 H       
  32 H32            3.8007    -1.1786    -0.8189 H       
  33 H33            0.4185     6.3069     0.9086 H       
  34 H34            2.8024     6.8830     0.7138 H       
  35 H35            4.4660     5.1302     0.2523 H       
  36 H36            3.7526     2.7905    -0.0118 H       
  37 H37            0.5403    -4.8146    -0.6000 H       
  38 H38            5.5158    -3.7781    -0.4317 H       
  39 H39            5.0189    -4.4610    -1.9986 H       
  40 H40            5.3997    -2.7275    -1.8639 H       
@<TRIPOS>BOND
   1    1    2 1
   2    1    3 2
   3    2    9 1
   4    2    5 1
   5    3    4 1
   6    3    7 1
   7    4    5 2
   8    4   25 1
   9    5    6 1
  10    6   14 ar
  11    6   22 ar
  12    7    8 ar
  13    7   18 ar
  14    8   15 ar
  15    8   26 1
  16    9   10 1
  17    9   27 1
  18    9   28 1
  19   10   11 1
  20   10   12 2
  21   11   13 1
  22   13   29 1
  23   13   30 1
  24   13   31 1
  25   14   19 ar
  26   14   32 1
  27   15   16 ar
  28   15   33 1
  29   16   17 ar
  30   16   34 1
  31   17   18 ar
  32   17   35 1
  33   18   36 1
  34   19   20 ar
  35   19   24 1
  36   20   21 ar
  37   20   23 1
  38   21   22 ar
  39   21   37 1
  40   24   38 1
  41   24   39 1
  42   24   40 1

#	End of record

