#	Name: ASD03090730
#	Creating user name:	WinNT
#	Creation time:	15. 06. 2019 20:29

#	Modifying user name:	WinNT
#	Modification time:	15. 06. 2019 20:29

#	Program:	/corina/corina34_cracker 3.40 0067  02.08.2006

@<TRIPOS>MOLECULE
ASD03090730
  38   40    0    0    0
SMALL
NO_CHARGES


@<TRIPOS>ATOM
   1 N1            -0.0161     1.3435     0.0230 N.am    
   2 C2             0.0020    -0.0040     0.0012 C.2     
   3 O3             1.0630    -0.5974    -0.0258 O.2     
   4 N4            -1.1558    -0.6938     0.0094 N.am    
   5 C5            -2.2467    -2.7727    -0.6094 C.ar    
   6 C6            -1.1402    -2.0929    -0.1043 C.ar    
   7 C7            -0.0205    -2.8186     0.2852 C.ar    
   8 C8            -0.0488    -4.1983     0.1550 C.ar    
   9 C9            -1.1845    -4.8085    -0.3559 C.ar    
  10 N10           -2.2355    -4.0904    -0.7188 N.ar    
  11 O11           -1.2185    -6.1594    -0.4860 O.3     
  12 C12           -2.4157    -6.7299    -1.0183 C.3     
  13 O13           -3.3485    -2.0759    -0.9880 O.3     
  14 C14           -4.4498    -2.8305    -1.4979 C.3     
  15 O15            2.4874     3.6773     0.0198 O.3     
  16 N16            1.3215     3.3569     0.0334 N.2     
  17 C17            1.1821     2.0573     0.0145 C.2     
  18 C18            2.4957     1.5180    -0.0155 C.2     
  19 C19            3.2960     2.6081    -0.0107 C.2     
  20 C20            4.8028     2.6192    -0.0356 C.3     
  21 C21            5.4848     3.3220    -1.2111 C.3     
  22 C22            5.5031     3.9626     0.1782 C.3     
  23 H23           -0.8626     1.8169     0.0405 H       
  24 H24           -2.0000    -0.2234     0.0938 H       
  25 H25            0.8517    -2.3189     0.6799 H       
  26 H26            0.8046    -4.7917     0.4480 H       
  27 H27           -2.5929    -6.3349    -2.0186 H       
  28 H28           -2.3103    -7.8136    -1.0691 H       
  29 H29           -3.2570    -6.4765    -0.3733 H       
  30 H30           -4.7935    -3.5311    -0.7369 H       
  31 H31           -5.2624    -2.1539    -1.7623 H       
  32 H32           -4.1335    -3.3820    -2.3832 H       
  33 H33            2.7877     0.4784    -0.0366 H       
  34 H34            5.2862     1.7294     0.3679 H       
  35 H35            6.4170     2.8948    -1.5807 H       
  36 H36            4.8436     3.7764    -1.9665 H       
  37 H37            4.8739     4.8385     0.3368 H       
  38 H38            6.4473     3.9569     0.7226 H       
@<TRIPOS>BOND
   1    1    2 am
   2    1   17 1
   3    1   23 1
   4    2    3 2
   5    2    4 am
   6    4    6 1
   7    4   24 1
   8    5    6 ar
   9    5   10 ar
  10    5   13 1
  11    6    7 ar
  12    7    8 ar
  13    7   25 1
  14    8    9 ar
  15    8   26 1
  16    9   10 ar
  17    9   11 1
  18   11   12 1
  19   12   27 1
  20   12   28 1
  21   12   29 1
  22   13   14 1
  23   14   30 1
  24   14   31 1
  25   14   32 1
  26   15   16 1
  27   15   19 1
  28   16   17 2
  29   17   18 1
  30   18   19 2
  31   18   33 1
  32   19   20 1
  33   20   21 1
  34   20   22 1
  35   20   34 1
  36   21   22 1
  37   21   35 1
  38   21   36 1
  39   22   37 1
  40   22   38 1

#	End of record

