#	Name: ASD01911272
#	Creating user name:	WinNT
#	Creation time:	15. 06. 2019 19:57

#	Modifying user name:	WinNT
#	Modification time:	15. 06. 2019 19:57

#	Program:	/corina/corina34_cracker 3.40 0067  02.08.2006

@<TRIPOS>MOLECULE
ASD01911272
  47   49    0    0    0
SMALL
NO_CHARGES


@<TRIPOS>ATOM
   1 C1             0.1719     0.6549     1.5136 C.3     
   2 C2             0.1031    -0.8341     1.2922 C.ar    
   3 C3            -0.0248    -1.6874     2.3734 C.ar    
   4 C4            -0.0882    -3.0558     2.1787 C.ar    
   5 C5            -0.0246    -3.5778     0.9033 C.ar    
   6 C6             0.1040    -2.7223    -0.1918 C.ar    
   7 C7             0.1621    -1.3432     0.0110 C.ar    
   8 C8             0.1705    -3.2575    -1.5183 C.1     
   9 C9             0.2251    -3.6963    -2.6059 C.1     
  10 C10            0.2935    -4.2464    -3.9695 C.3     
  11 O11            0.4227    -3.1766    -4.9079 O.3     
  12 C12            1.5064    -5.1744    -4.0844 C.3     
  13 C13            1.2831    -6.3986    -3.1822 C.3     
  14 C14            0.8156    -5.8888    -1.7995 C.3     
  15 C15           -0.7209    -5.8011    -1.9120 C.3     
  16 C16           -1.0373    -6.2661    -3.3521 C.3     
  17 C17           -0.9867    -5.0329    -4.2665 C.3     
  18 N18            0.1102    -7.1316    -3.7170 N.am    
  19 C19            0.0916    -8.3061    -4.3779 C.2     
  20 O20            1.1360    -8.8516    -4.6778 O.2     
  21 N21           -1.0848    -8.8759    -4.7064 N.am    
  22 C22           -1.1082   -10.0767    -5.5453 C.3     
  23 C23           -2.3402    -8.2944    -4.2246 C.3     
  24 H24            1.2117     0.9555     1.6419 H       
  25 H25           -0.2516     1.1703     0.6516 H       
  26 H26           -0.3947     0.9159     2.4074 H       
  27 H27           -0.0750    -1.2837     3.3739 H       
  28 H28           -0.1873    -3.7168     3.0271 H       
  29 H29           -0.0738    -4.6461     0.7527 H       
  30 H30            0.2616    -0.6759    -0.8324 H       
  31 H31           -0.3112    -2.5471    -4.8903 H       
  32 H32            1.6211    -5.4990    -5.1186 H       
  33 H33            2.4034    -4.6440    -3.7647 H       
  34 H34            2.1734    -7.0234    -3.1112 H       
  35 H35            1.0995    -6.5946    -1.0189 H       
  36 H36            1.2381    -4.9051    -1.5949 H       
  37 H37           -1.1930    -6.4638    -1.1867 H       
  38 H38           -1.0544    -4.7742    -1.7627 H       
  39 H39           -1.9934    -6.7855    -3.4163 H       
  40 H40           -1.8545    -4.4014    -4.0762 H       
  41 H41           -0.9860    -5.3511    -5.3090 H       
  42 H42           -1.0638   -10.9630    -4.9123 H       
  43 H43           -2.0279   -10.0936    -6.1300 H       
  44 H44           -0.2503   -10.0670    -6.2176 H       
  45 H45           -2.4816    -7.3116    -4.6742 H       
  46 H46           -3.1711    -8.9434    -4.5013 H       
  47 H47           -2.3021    -8.1956    -3.1397 H       
@<TRIPOS>BOND
   1    1    2 1
   2    1   24 1
   3    1   25 1
   4    1   26 1
   5    2    3 ar
   6    2    7 ar
   7    3    4 ar
   8    3   27 1
   9    4    5 ar
  10    4   28 1
  11    5    6 ar
  12    5   29 1
  13    6    7 ar
  14    6    8 1
  15    7   30 1
  16    8    9 3
  17    9   10 1
  18   10   11 1
  19   10   12 1
  20   10   17 1
  21   11   31 1
  22   12   13 1
  23   12   32 1
  24   12   33 1
  25   13   14 1
  26   13   18 1
  27   13   34 1
  28   14   15 1
  29   14   35 1
  30   14   36 1
  31   15   16 1
  32   15   37 1
  33   15   38 1
  34   16   17 1
  35   16   18 1
  36   16   39 1
  37   17   40 1
  38   17   41 1
  39   18   19 am
  40   19   20 2
  41   19   21 am
  42   21   22 1
  43   21   23 1
  44   22   42 1
  45   22   43 1
  46   22   44 1
  47   23   45 1
  48   23   46 1
  49   23   47 1

#	End of record

