#	Name: ASD03090301
#	Creating user name:	WinNT
#	Creation time:	15. 06. 2019 20:28

#	Modifying user name:	WinNT
#	Modification time:	15. 06. 2019 20:28

#	Program:	/corina/corina34_cracker 3.40 0067  02.08.2006

@<TRIPOS>MOLECULE
ASD03090301
  50   53    0    0    0
SMALL
NO_CHARGES


@<TRIPOS>ATOM
   1 C1            -0.3204     1.0300    -0.7477 C.ar    
   2 C2            -0.1795    -0.1100     0.0331 C.ar    
   3 C3             1.0540    -0.7100     0.1702 C.ar    
   4 C4             2.1669    -0.1717    -0.4774 C.ar    
   5 C5             2.0267     0.9739    -1.2609 C.ar    
   6 C6             0.7861     1.5731    -1.3937 C.ar    
   7 C7             3.4913    -0.8138    -0.3330 C.2     
   8 N8             7.0039    -0.8643    -0.4727 N.pl3   
   9 C9             7.4350     0.3567    -0.9977 C.ar    
  10 C10            8.6445     0.9027    -0.5863 C.ar    
  11 C11            9.0705     2.1100    -1.1055 C.ar    
  12 C12            8.2953     2.7777    -2.0343 C.ar    
  13 C13            7.0857     2.2374    -2.4488 C.ar    
  14 C14            6.6579     1.0234    -1.9355 C.ar    
  15 N15            4.6582    -0.2456    -0.5646 N.2     
  16 C16            5.6386    -1.1202    -0.3308 C.2     
  17 N17            5.1129    -2.2602     0.0535 N.2     
  18 N18            3.7196    -2.0856     0.0655 N.pl3   
  19 C19            2.7127    -3.0857     0.4290 C.3     
  20 C20            2.4628    -3.0303     1.9140 C.2     
  21 N21            1.5686    -3.8658     2.4786 N.am    
  22 O22            6.3242     2.8958    -3.3616 O.3     
  23 O23            3.0663    -2.2337     2.6012 O.2     
  24 C24            1.3257    -3.8119     3.9223 C.3     
  25 O25            0.6666     2.6949    -2.1556 O.3     
  26 C26           -0.6561     3.0543    -2.5692 C.3     
  27 C27           -1.5849     2.9508    -1.3519 C.3     
  28 O28           -1.5491     1.6008    -0.8753 O.3     
  29 C29            6.8297     4.1390    -3.8525 C.3     
  30 F30            8.0642     3.9270    -4.4757 F       
  31 F31            5.9274     4.6773    -4.7762 F       
  32 F32            6.9926     5.0299    -2.7861 F       
  33 H33           -1.0396    -0.5278     0.5351 H       
  34 H34            1.1592    -1.5960     0.7787 H       
  35 H35            2.8858     1.3934    -1.7633 H       
  36 H36            7.6531    -1.5342    -0.2067 H       
  37 H37            9.2519     0.3832     0.1401 H       
  38 H38           10.0110     2.5330    -0.7846 H       
  39 H39            8.6309     3.7215    -2.4381 H       
  40 H40            5.7170     0.6015    -2.2568 H       
  41 H41            1.7848    -2.8773    -0.1037 H       
  42 H42            3.0722    -4.0784     0.1578 H       
  43 H43            1.0859    -4.5029     1.9290 H       
  44 H44            0.5765    -4.5560     4.1927 H       
  45 H45            2.2535    -4.0203     4.4549 H       
  46 H46            0.9661    -2.8192     4.1934 H       
  47 H47           -0.6580     4.0766    -2.9472 H       
  48 H48           -0.9952     2.3727    -3.3493 H       
  49 H49           -1.2419     3.6274    -0.5692 H       
  50 H50           -2.6027     3.2105    -1.6430 H       
@<TRIPOS>BOND
   1    1    2 ar
   2    1    6 ar
   3    1   28 1
   4    2    3 ar
   5    2   33 1
   6    3    4 ar
   7    3   34 1
   8    4    5 ar
   9    4    7 1
  10    5    6 ar
  11    5   35 1
  12    6   25 1
  13    7   15 2
  14    7   18 1
  15    8    9 1
  16    8   16 1
  17    8   36 1
  18    9   10 ar
  19    9   14 ar
  20   10   11 ar
  21   10   37 1
  22   11   12 ar
  23   11   38 1
  24   12   13 ar
  25   12   39 1
  26   13   14 ar
  27   13   22 1
  28   14   40 1
  29   15   16 1
  30   16   17 2
  31   17   18 1
  32   18   19 1
  33   19   20 1
  34   19   41 1
  35   19   42 1
  36   20   21 am
  37   20   23 2
  38   21   24 1
  39   21   43 1
  40   22   29 1
  41   24   44 1
  42   24   45 1
  43   24   46 1
  44   25   26 1
  45   26   27 1
  46   26   47 1
  47   26   48 1
  48   27   28 1
  49   27   49 1
  50   27   50 1
  51   29   30 1
  52   29   31 1
  53   29   32 1

#	End of record

