#	Name: ASD01420360
#	Creating user name:	WinNT
#	Creation time:	15. 06. 2019 19:20

#	Modifying user name:	WinNT
#	Modification time:	15. 06. 2019 19:20

#	Program:	/corina/corina34_cracker 3.40 0067  02.08.2006

@<TRIPOS>MOLECULE
ASD01420360
  39   39    0    0    0
SMALL
NO_CHARGES


@<TRIPOS>ATOM
   1 C1            -0.0180     1.4762     0.0102 C.3     
   2 N2             0.0021    -0.0041     0.0020 N.3     
   3 C3             1.2735    -0.3386    -0.6786 C.3     
   4 C4             2.1992     0.8264    -0.4106 C.ar    
   5 C5             3.5706     0.9513    -0.5085 C.ar    
   6 C6             4.1813     2.1591    -0.1965 C.ar    
   7 C7             3.4090     3.2387     0.2137 C.ar    
   8 C8             2.0379     3.1078     0.3098 C.ar    
   9 C9             1.4321     1.9046    -0.0014 C.ar    
  10 N10            5.5687     2.2879    -0.2944 N.3     
  11 C11            5.9997     3.6419     0.0806 C.3     
  12 C12            7.5277     3.7183     0.0370 C.3     
  13 N13            7.9944     3.3753    -1.3136 N.3     
  14 C14            7.5634     2.0213    -1.6885 C.3     
  15 C15            6.0354     1.9448    -1.6450 C.3     
  16 C16            9.4535     3.5107    -1.4165 C.3     
  17 H17           -0.5283     1.8507    -0.8772 H       
  18 H18           -0.5112     1.8411     0.9111 H       
  19 H19           -0.0125    -0.3711     0.9418 H       
  20 H20            1.6925    -1.2556    -0.2641 H       
  21 H21            1.1089    -0.4499    -1.7504 H       
  22 H22            4.1683     0.1102    -0.8273 H       
  23 H23            3.8807     4.1792     0.4575 H       
  24 H24            1.4374     3.9469     0.6290 H       
  25 H25            5.5793     4.3642    -0.6192 H       
  26 H26            5.6529     3.8677     1.0890 H       
  27 H27            7.8484     4.7297     0.2867 H       
  28 H28            7.9476     3.0153     0.7564 H       
  29 H29            7.9102     1.7955    -2.6969 H       
  30 H30            7.9838     1.2990    -0.9888 H       
  31 H31            5.7147     0.9335    -1.8946 H       
  32 H32            5.6155     2.6479    -2.3644 H       
  33 H33            9.9319     2.8419    -0.7011 H       
  34 H34            9.7722     3.2509    -2.4260 H       
  35 H35            9.7391     4.5399    -1.1989 H       
  36 Cl36          14.9319     9.7297     6.0890 Cl      
  37 H37           14.9319    11.0997     6.0890 H       
  38 Cl38          19.9319    16.0997    11.0890 Cl      
  39 H39           19.9319    17.4697    11.0890 H       
@<TRIPOS>BOND
   1    1    2 1
   2    1    9 1
   3    1   17 1
   4    1   18 1
   5    2    3 1
   6    2   19 1
   7    3    4 1
   8    3   20 1
   9    3   21 1
  10    4    5 ar
  11    4    9 ar
  12    5    6 ar
  13    5   22 1
  14    6    7 ar
  15    6   10 1
  16    7    8 ar
  17    7   23 1
  18    8    9 ar
  19    8   24 1
  20   10   11 1
  21   10   15 1
  22   11   12 1
  23   11   25 1
  24   11   26 1
  25   12   13 1
  26   12   27 1
  27   12   28 1
  28   13   14 1
  29   13   16 1
  30   14   15 1
  31   14   29 1
  32   14   30 1
  33   15   31 1
  34   15   32 1
  35   16   33 1
  36   16   34 1
  37   16   35 1
  38   36   37 1
  39   38   39 1

#	End of record

