#	Name: ASD01881271
#	Creating user name:	WinNT
#	Creation time:	15. 06. 2019 19:42

#	Modifying user name:	WinNT
#	Modification time:	15. 06. 2019 19:42

#	Program:	/corina/corina34_cracker 3.40 0067  02.08.2006

@<TRIPOS>MOLECULE
ASD01881271
  54   58    0    0    0
SMALL
NO_CHARGES


@<TRIPOS>ATOM
   1 C1            -0.0162     1.3398     0.0094 C.2     
   2 N2             0.0021    -0.0041     0.0020 N.am    
   3 C3             1.3976    -0.4574    -0.0137 C.3     
   4 C4             2.2451     0.7905    -0.0151 C.ar    
   5 C5             3.6000     1.0055    -0.0269 C.ar    
   6 C6             4.0976     2.3073    -0.0247 C.ar    
   7 C7             3.2212     3.3882    -0.0100 C.ar    
   8 C8             1.8599     3.1774     0.0018 C.ar    
   9 C9             1.3562     1.8711    -0.0008 C.ar    
  10 O10           -1.0239     2.0203     0.0181 O.2     
  11 N11            5.4707     2.5263    -0.0366 N.pl3   
  12 C12            5.9943     3.8945    -0.0343 C.3     
  13 C13            8.1893     3.8443    -1.2447 C.ar    
  14 C14            7.5008     3.8559    -0.0489 C.ar    
  15 C15            8.2211     3.8317     1.1484 C.ar    
  16 C16            9.6167     3.7967     1.0788 C.ar    
  17 C17           10.2251     3.7874    -0.1593 C.ar    
  18 N18            9.5078     3.8110    -1.2665 N.ar    
  19 C19            7.5234     3.8434     2.4578 C.ar    
  20 C20            7.8544     2.9067     3.4349 C.ar    
  21 C21            7.2022     2.9221     4.6512 C.ar    
  22 C22            6.2213     3.8649     4.9009 C.ar    
  23 C23            5.8884     4.7969     3.9344 C.ar    
  24 C24            6.5388     4.7948     2.7171 C.ar    
  25 C25           11.7290     3.7502    -0.2485 C.3     
  26 C26            7.4246     3.8638    -2.5431 C.3     
  27 C27           -1.1772    -0.8732     0.0093 C.3     
  28 C28           -2.1368    -0.7520     1.1949 C.3     
  29 C29           -2.5439    -0.2112    -0.1772 C.3     
  30 Cl30           0.7708     4.5292     0.0206 Cl      
  31 H31            1.6083    -1.0527     0.8747 H       
  32 H32            1.5912    -1.0431    -0.9124 H       
  33 H33            4.2804     0.1667    -0.0376 H       
  34 H34            3.6096     4.3959    -0.0076 H       
  35 H35            6.0819     1.7731    -0.0465 H       
  36 H36            5.6358     4.4222    -0.9180 H       
  37 H37            5.6528     4.4127     0.8618 H       
  38 H38           10.2101     3.7776     1.9810 H       
  39 H39            8.6196     2.1697     3.2407 H       
  40 H40            7.4579     2.1966     5.4092 H       
  41 H41            5.7132     3.8732     5.8539 H       
  42 H42            5.1213     5.5303     4.1345 H       
  43 H43            6.2817     5.5261     1.9651 H       
  44 H44           12.0659     2.7139    -0.2749 H       
  45 H45           12.0519     4.2605    -1.1559 H       
  46 H46           12.1569     4.2494     0.6209 H       
  47 H47            7.2620     4.8959    -2.8536 H       
  48 H48            7.9960     3.3397    -3.3092 H       
  49 H49            6.4627     3.3699    -2.4057 H       
  50 H50           -1.0341    -1.8635    -0.4231 H       
  51 H51           -2.6252    -1.6625     1.5421 H       
  52 H52           -1.8906    -0.0256     1.9693 H       
  53 H53           -2.5656     0.8710    -0.3055 H       
  54 H54           -3.3002    -0.7659    -0.7327 H       
@<TRIPOS>BOND
   1    1    2 am
   2    1    9 1
   3    1   10 2
   4    2    3 1
   5    2   27 1
   6    3    4 1
   7    3   31 1
   8    3   32 1
   9    4    5 ar
  10    4    9 ar
  11    5    6 ar
  12    5   33 1
  13    6    7 ar
  14    6   11 1
  15    7    8 ar
  16    7   34 1
  17    8    9 ar
  18    8   30 1
  19   11   12 1
  20   11   35 1
  21   12   14 1
  22   12   36 1
  23   12   37 1
  24   13   14 ar
  25   13   18 ar
  26   13   26 1
  27   14   15 ar
  28   15   16 ar
  29   15   19 1
  30   16   17 ar
  31   16   38 1
  32   17   18 ar
  33   17   25 1
  34   19   20 ar
  35   19   24 ar
  36   20   21 ar
  37   20   39 1
  38   21   22 ar
  39   21   40 1
  40   22   23 ar
  41   22   41 1
  42   23   24 ar
  43   23   42 1
  44   24   43 1
  45   25   44 1
  46   25   45 1
  47   25   46 1
  48   26   47 1
  49   26   48 1
  50   26   49 1
  51   27   28 1
  52   27   29 1
  53   27   50 1
  54   28   29 1
  55   28   51 1
  56   28   52 1
  57   29   53 1
  58   29   54 1

#	End of record

