#	Name: ASD03331495
#	Creating user name:	WinNT
#	Creation time:	15. 06. 2019 20:39

#	Modifying user name:	WinNT
#	Modification time:	15. 06. 2019 20:39

#	Program:	/corina/corina34_cracker 3.40 0067  02.08.2006

@<TRIPOS>MOLECULE
ASD03331495
  55   57    0    0    0
SMALL
NO_CHARGES


@<TRIPOS>ATOM
   1 C1             0.6575     0.9823     1.7554 C.ar    
   2 C2             0.5209    -0.4381     1.3653 C.2     
   3 N3            -0.5403    -1.2419     1.6502 N.pl3   
   4 C4            -0.2769    -2.4685     1.1190 C.2     
   5 C5             0.9385    -2.3936     0.5179 C.2     
   6 N6             1.4007    -1.1333     0.6813 N.2     
   7 C7             1.6271    -3.4873    -0.1900 C.2     
   8 N8             2.8373    -3.2747    -0.7439 N.am    
   9 C9            -0.1652     1.5179     2.7466 C.ar    
  10 O10            1.1035    -4.5817    -0.2743 O.2     
  11 C11            3.5219    -4.3620    -1.4476 C.3     
  12 C12            3.0320    -4.4204    -2.8959 C.3     
  13 C13            5.0084    -4.1144    -1.4298 C.2     
  14 C14            3.2446    -3.0592    -3.5614 C.3     
  15 C15            3.8185    -5.4890    -3.6577 C.3     
  16 C16            1.5429    -4.7712    -2.9168 C.3     
  17 C17           -0.0345     2.8430     3.1080 C.ar    
  18 C18            0.9115     3.6427     2.4884 C.ar    
  19 C19            1.7331     3.1157     1.5014 C.ar    
  20 C20            1.6135     1.7891     1.1371 C.ar    
  21 N21            5.8636    -5.1311    -1.6564 N.am    
  22 O22            5.4350    -3.0003    -1.2114 O.2     
  23 C23            7.3073    -4.9154    -1.5317 C.3     
  24 F24            1.0347     4.9398     2.8455 F       
  25 F25            2.6542     3.9002     0.9003 F       
  26 C26           -1.7617    -0.9027     2.3847 C.3     
  27 C27           -2.8272    -1.9627     2.0841 C.3     
  28 C28           -2.2413    -3.3599     2.3067 C.3     
  29 C29           -1.2034    -3.6534     1.2149 C.3     
  30 H30            3.2549    -2.4018    -0.6766 H       
  31 H31           -0.9039     0.8960     3.2303 H       
  32 H32            3.3053    -5.3085    -0.9523 H       
  33 H33            4.3055    -2.8093    -3.5466 H       
  34 H34            2.8956    -3.1008    -4.5932 H       
  35 H35            2.6843    -2.2979    -3.0187 H       
  36 H36            3.6792    -6.4561    -3.1745 H       
  37 H37            3.4590    -5.5411    -4.6854 H       
  38 H38            4.8775    -5.2311    -3.6558 H       
  39 H39            0.9826    -4.0099    -2.3740 H       
  40 H40            1.1939    -4.8128    -3.9485 H       
  41 H41            1.3914    -5.7409    -2.4426 H       
  42 H42           -0.6714     3.2576     3.8753 H       
  43 H43            2.2530     1.3790     0.3694 H       
  44 H44            5.5233    -6.0055    -1.9022 H       
  45 H45            7.6217    -4.1449    -2.2356 H       
  46 H46            7.5406    -4.5966    -0.5158 H       
  47 H47            7.8337    -5.8444    -1.7508 H       
  48 H48           -1.5527    -0.8876     3.4544 H       
  49 H49           -2.1199     0.0762     2.0661 H       
  50 H50           -3.6805    -1.8174     2.7466 H       
  51 H51           -3.1525    -1.8666     1.0482 H       
  52 H52           -1.7623    -3.4020     3.2850 H       
  53 H53           -3.0392    -4.1010     2.2592 H       
  54 H54           -1.7065    -3.8055     0.2600 H       
  55 H55           -0.6345    -4.5452     1.4780 H       
@<TRIPOS>BOND
   1    1    2 1
   2    1    9 ar
   3    1   20 ar
   4    2    3 1
   5    2    6 2
   6    3    4 1
   7    3   26 1
   8    4    5 2
   9    4   29 1
  10    5    6 1
  11    5    7 1
  12    7    8 am
  13    7   10 2
  14    8   11 1
  15    8   30 1
  16    9   17 ar
  17    9   31 1
  18   11   12 1
  19   11   13 1
  20   11   32 1
  21   12   14 1
  22   12   15 1
  23   12   16 1
  24   13   21 am
  25   13   22 2
  26   14   33 1
  27   14   34 1
  28   14   35 1
  29   15   36 1
  30   15   37 1
  31   15   38 1
  32   16   39 1
  33   16   40 1
  34   16   41 1
  35   17   18 ar
  36   17   42 1
  37   18   19 ar
  38   18   24 1
  39   19   20 ar
  40   19   25 1
  41   20   43 1
  42   21   23 1
  43   21   44 1
  44   23   45 1
  45   23   46 1
  46   23   47 1
  47   26   27 1
  48   26   48 1
  49   26   49 1
  50   27   28 1
  51   27   50 1
  52   27   51 1
  53   28   29 1
  54   28   52 1
  55   28   53 1
  56   29   54 1
  57   29   55 1

#	End of record

