#	Name: ASD01411006
#	Creating user name:	WinNT
#	Creation time:	15. 06. 2019 19:19

#	Modifying user name:	WinNT
#	Modification time:	15. 06. 2019 19:19

#	Program:	/corina/corina34_cracker 3.40 0067  02.08.2006

@<TRIPOS>MOLECULE
ASD01411006
  68   73    0    0    0
SMALL
NO_CHARGES


@<TRIPOS>ATOM
   1 C1            -0.0646     1.3322     0.0340 C.ar    
   2 C2             0.0604    -0.0703     0.0033 C.ar    
   3 C3            -1.0754    -0.8729     0.0170 C.ar    
   4 C4            -2.3154    -0.3055     0.0598 C.ar    
   5 C5            -2.4589     1.0885     0.0908 C.ar    
   6 C6            -1.3352     1.9080     0.0829 C.ar    
   7 N7             1.1892     1.8461     0.0120 N.2     
   8 C8             2.0621     0.8710    -0.0295 C.2     
   9 N9             1.4118    -0.3341    -0.0365 N.pl3   
  10 C10            2.0373    -1.6582    -0.0780 C.3     
  11 C11            1.7269    -2.4098     1.2180 C.3     
  12 C12            2.3802    -3.7926     1.1746 C.3     
  13 C13            1.8292    -4.5798    -0.0160 C.3     
  14 C14            2.1396    -3.8283    -1.3120 C.3     
  15 C15            1.4863    -2.4454    -1.2686 C.3     
  16 C16           -3.8074     1.6887     0.1365 C.2     
  17 O17           -3.9341     2.8976     0.1635 O.2     
  18 N18           -4.8977     0.8965     0.1484 N.am    
  19 C19           -6.2354     1.4920     0.1938 C.3     
  20 C20           -7.2484     0.5170    -0.4099 C.3     
  21 C21           -6.6081     1.7814     1.6250 C.2     
  22 O22           -5.8356     1.5174     2.5157 O.2     
  23 O23           -7.7984     2.3326     1.9102 O.3     
  24 C24           -6.9479     0.3229    -1.8738 C.2     
  25 C25           -7.5089     0.9842    -2.8985 C.2     
  26 N26           -6.9873     0.5392    -4.0823 N.pl3   
  27 C27           -6.0528    -0.4458    -3.8415 C.ar    
  28 C28           -5.9836    -0.6189    -2.4477 C.ar    
  29 C29           -5.2430    -1.2168    -4.6689 C.ar    
  30 C30           -4.3864    -2.1457    -4.1222 C.ar    
  31 C31           -4.3201    -2.3239    -2.7425 C.ar    
  32 C32           -5.1102    -1.5636    -1.9040 C.ar    
  33 O33           -3.4684    -3.2458    -2.2190 O.3     
  34 C34            3.5313     1.0452    -0.0641 C.ar    
  35 C35            4.0734     2.3240    -0.1818 C.ar    
  36 C36            5.4501     2.4708    -0.2123 C.ar    
  37 C37            6.2393     1.3336    -0.1242 C.ar    
  38 C38            5.6340     0.0942    -0.0092 C.ar    
  39 N39            4.3228    -0.0176     0.0226 N.ar    
  40 H40           -0.9755    -1.9480    -0.0067 H       
  41 H41           -3.1929    -0.9350     0.0695 H       
  42 H42           -1.4452     2.9821     0.1071 H       
  43 H43            3.1165    -1.5470    -0.1841 H       
  44 H44            2.1195    -1.8489     2.0662 H       
  45 H45            0.6478    -2.5209     1.3240 H       
  46 H46            3.4594    -3.6815     1.0686 H       
  47 H47            2.1591    -4.3280     2.0979 H       
  48 H48            2.2946    -5.5650    -0.0469 H       
  49 H49            0.7501    -4.6910     0.0900 H       
  50 H50            3.2187    -3.7171    -1.4180 H       
  51 H51            1.7470    -4.3891    -2.1602 H       
  52 H52            0.4072    -2.5566    -1.1626 H       
  53 H53            1.7074    -1.9100    -2.1919 H       
  54 H54           -4.7966    -0.0680     0.1269 H       
  55 H55           -6.2395     2.4202    -0.3776 H       
  56 H56           -7.1816    -0.4414     0.1050 H       
  57 H57           -8.2542     0.9214    -0.2959 H       
  58 H58           -7.9926     2.4997     2.8426 H       
  59 H59           -8.2612     1.7531    -2.8025 H       
  60 H60           -7.2379     0.8672    -4.9601 H       
  61 H61           -5.2866    -1.0871    -5.7402 H       
  62 H62           -3.7602    -2.7419    -4.7693 H       
  63 H63           -5.0576    -1.7025    -0.8342 H       
  64 H64           -2.5882    -2.8991    -2.0187 H       
  65 H65            3.4289     3.1881    -0.2485 H       
  66 H66            5.8991     3.4489    -0.3031 H       
  67 H67            7.3161     1.4145    -0.1455 H       
  68 H68            6.2460    -0.7931     0.0592 H       
@<TRIPOS>BOND
   1    1    2 ar
   2    1    7 1
   3    1    6 ar
   4    2    3 ar
   5    2    9 1
   6    3    4 ar
   7    3   40 1
   8    4    5 ar
   9    4   41 1
  10    5    6 ar
  11    5   16 1
  12    6   42 1
  13    7    8 2
  14    8    9 1
  15    8   34 1
  16    9   10 1
  17   10   11 1
  18   10   15 1
  19   10   43 1
  20   11   12 1
  21   11   44 1
  22   11   45 1
  23   12   13 1
  24   12   46 1
  25   12   47 1
  26   13   14 1
  27   13   48 1
  28   13   49 1
  29   14   15 1
  30   14   50 1
  31   14   51 1
  32   15   52 1
  33   15   53 1
  34   16   17 2
  35   16   18 am
  36   18   19 1
  37   18   54 1
  38   19   20 1
  39   19   21 1
  40   19   55 1
  41   20   24 1
  42   20   56 1
  43   20   57 1
  44   21   22 2
  45   21   23 1
  46   23   58 1
  47   24   25 2
  48   24   28 1
  49   25   26 1
  50   25   59 1
  51   26   27 1
  52   26   60 1
  53   27   28 ar
  54   27   29 ar
  55   28   32 ar
  56   29   30 ar
  57   29   61 1
  58   30   31 ar
  59   30   62 1
  60   31   32 ar
  61   31   33 1
  62   32   63 1
  63   33   64 1
  64   34   35 ar
  65   34   39 ar
  66   35   36 ar
  67   35   65 1
  68   36   37 ar
  69   36   66 1
  70   37   38 ar
  71   37   67 1
  72   38   39 ar
  73   38   68 1

#	End of record

