#	Name: ASD01201035
#	Creating user name:	WinNT
#	Creation time:	15. 06. 2019 19:09

#	Modifying user name:	WinNT
#	Modification time:	15. 06. 2019 19:09

#	Program:	/corina/corina34_cracker 3.40 0067  02.08.2006

@<TRIPOS>MOLECULE
ASD01201035
  50   54    0    0    0
SMALL
NO_CHARGES


@<TRIPOS>ATOM
   1 C1            -0.0194     1.3725    -0.0075 C.ar    
   2 C2             0.0019    -0.0107    -0.0149 C.ar    
   3 C3             1.2098    -0.6887    -0.0244 C.ar    
   4 C4             2.3919     0.0143    -0.0267 C.ar    
   5 C5             2.3820     1.4114    -0.0193 C.ar    
   6 C6             1.1608     2.0874    -0.0096 C.ar    
   7 C7             3.8416    -0.4018    -0.0361 C.3     
   8 N8             4.6250     0.8389    -0.0335 N.am    
   9 C9             3.7797     1.8839    -0.0238 C.2     
  10 O10            4.1183     3.0513    -0.0190 O.2     
  11 C11            6.0875     0.9245    -0.0403 C.3     
  12 S12            4.2188    -1.3803     1.4441 S.3     
  13 C13            3.6296    -3.0372     0.9990 C.3     
  14 C14            6.5819     0.9613    -1.4634 C.ar    
  15 C15            3.8762    -3.9830     2.1460 C.2     
  16 O16            4.3981    -3.5791     3.1635 O.2     
  17 N17            3.5169    -5.2777     2.0411 N.am    
  18 C18            3.8413    -6.1757     3.0569 C.ar    
  19 C19            6.7371     2.1675    -2.1041 C.ar    
  20 C20            7.1956     2.2083    -3.4248 C.ar    
  21 C21            7.4961     1.0176    -4.0917 C.ar    
  22 C22            7.3280    -0.2064    -3.4086 C.ar    
  23 C23            6.8848    -0.2231    -2.1219 C.ar    
  24 N24            4.5853    -5.7733     4.0748 N.ar    
  25 C25            4.9147    -6.5905     5.0568 C.ar    
  26 C26            4.4912    -7.9047     5.0565 C.ar    
  27 C27            3.7088    -8.3664     4.0066 C.ar    
  28 C28            3.3755    -7.4842     2.9942 C.ar    
  29 S29            7.4893     3.5754    -4.4918 S.3     
  30 C30            8.0053     2.5294    -5.8005 C.2     
  31 C31            7.9556     1.2597    -5.4496 C.2     
  32 H32           -0.9644     1.8954    -0.0046 H       
  33 H33           -0.9258    -0.5636    -0.0128 H       
  34 H34            1.2233    -1.7686    -0.0298 H       
  35 H35            1.1398     3.1672    -0.0042 H       
  36 H36            4.0594    -0.9804    -0.9338 H       
  37 H37            6.4008     1.8315     0.4767 H       
  38 H38            6.5048     0.0546     0.4669 H       
  39 H39            2.5618    -2.9975     0.7840 H       
  40 H40            4.1650    -3.3885     0.1169 H       
  41 H41            3.0325    -5.5847     1.2588 H       
  42 H42            6.5041     3.0862    -1.5863 H       
  43 H43            7.5557    -1.1357    -3.9094 H       
  44 H44            6.7608    -1.1664    -1.6108 H       
  45 H45            5.5238    -6.2269     5.8712 H       
  46 H46            4.7660    -8.5666     5.8644 H       
  47 H47            3.3648    -9.3898     3.9828 H       
  48 H48            2.7681    -7.8097     2.1626 H       
  49 H49            8.3230     2.8806    -6.7712 H       
  50 H50            8.2353     0.4603    -6.1197 H       
@<TRIPOS>BOND
   1    1    2 ar
   2    1    6 ar
   3    1   32 1
   4    2    3 ar
   5    2   33 1
   6    3    4 ar
   7    3   34 1
   8    4    5 ar
   9    4    7 1
  10    5    6 ar
  11    5    9 1
  12    6   35 1
  13    7    8 1
  14    7   12 1
  15    7   36 1
  16    8    9 am
  17    8   11 1
  18    9   10 2
  19   11   14 1
  20   11   37 1
  21   11   38 1
  22   12   13 1
  23   13   15 1
  24   13   39 1
  25   13   40 1
  26   14   19 ar
  27   14   23 ar
  28   15   16 2
  29   15   17 am
  30   17   18 1
  31   17   41 1
  32   18   24 ar
  33   18   28 ar
  34   19   20 ar
  35   19   42 1
  36   20   21 ar
  37   20   29 1
  38   21   22 ar
  39   21   31 1
  40   22   23 ar
  41   22   43 1
  42   23   44 1
  43   24   25 ar
  44   25   26 ar
  45   25   45 1
  46   26   27 ar
  47   26   46 1
  48   27   28 ar
  49   27   47 1
  50   28   48 1
  51   29   30 1
  52   30   31 2
  53   30   49 1
  54   31   50 1

#	End of record

