#	Name: ASD03331223
#	Creating user name:	WinNT
#	Creation time:	15. 06. 2019 20:38

#	Modifying user name:	WinNT
#	Modification time:	15. 06. 2019 20:38

#	Program:	/corina/corina34_cracker 3.40 0067  02.08.2006

@<TRIPOS>MOLECULE
ASD03331223
  48   51    0    0    0
SMALL
NO_CHARGES


@<TRIPOS>ATOM
   1 N1            -0.0473     1.4519     0.2771 N.am    
   2 C2            -0.0347     0.0074     0.5537 C.3     
   3 C3             0.7366    -0.6963    -0.5679 C.3     
   4 N4             2.0623    -0.0792    -0.7081 N.3     
   5 C5             1.9544     1.3299    -1.1092 C.3     
   6 C6             1.2330     2.1166    -0.0097 C.3     
   7 C7            -1.2020     2.1469     0.2809 C.2     
   8 O8            -2.2608     1.5660     0.4219 O.2     
   9 N9            -1.1831     3.4859     0.1284 N.am    
  10 C10           -2.3856     4.1966     0.0329 C.ar    
  11 C11           -2.4021     5.5692     0.2481 C.ar    
  12 C12           -3.5911     6.2676     0.1525 C.ar    
  13 C13           -4.7625     5.6014    -0.1568 C.ar    
  14 C14           -4.7488     4.2353    -0.3714 C.ar    
  15 C15           -3.5632     3.5323    -0.2826 C.ar    
  16 C16            2.8967    -0.8331    -1.6533 C.3     
  17 C17            4.1451    -0.0465    -1.9594 C.ar    
  18 C18            5.2855    -0.2168    -1.1780 C.ar    
  19 N19            6.3896     0.4496    -1.4144 N.ar    
  20 C20            6.4704     1.3259    -2.4203 C.ar    
  21 C21            5.3464     1.5473    -3.2545 C.ar    
  22 C22            4.1611     0.8301    -3.0071 C.ar    
  23 C23            5.4363     2.4698    -4.3096 C.ar    
  24 C24            7.6569     2.0382    -2.6689 C.ar    
  25 C25            7.7089     2.9242    -3.7002 C.ar    
  26 C26            6.6021     3.1409    -4.5189 C.ar    
  27 Cl27          -0.9315     6.4058     0.6371 Cl      
  28 H28            0.4570    -0.1783     1.5086 H       
  29 H29           -1.0575    -0.3681     0.5862 H       
  30 H30            0.8510    -1.7524    -0.3236 H       
  31 H31            0.1881    -0.5966    -1.5046 H       
  32 H32            2.9520     1.7433    -1.2573 H       
  33 H33            1.3889     1.4014    -2.0383 H       
  34 H34            1.0484     3.1357    -0.3497 H       
  35 H35            1.8466     2.1337     0.8911 H       
  36 H36           -0.3364     3.9571     0.0848 H       
  37 H37           -3.6052     7.3344     0.3199 H       
  38 H38           -5.6904     6.1491    -0.2306 H       
  39 H39           -5.6657     3.7181    -0.6125 H       
  40 H40           -3.5529     2.4662    -0.4549 H       
  41 H41            3.1702    -1.7915    -1.2120 H       
  42 H42            2.3393    -1.0031    -2.5745 H       
  43 H43            5.2594    -0.9160    -0.3554 H       
  44 H44            3.2862     0.9743    -3.6236 H       
  45 H45            4.5857     2.6456    -4.9514 H       
  46 H46            8.5235     1.8828    -2.0434 H       
  47 H47            8.6225     3.4691    -3.8868 H       
  48 H48            6.6707     3.8495    -5.3311 H       
@<TRIPOS>BOND
   1    1    2 1
   2    1    6 1
   3    1    7 am
   4    2    3 1
   5    2   28 1
   6    2   29 1
   7    3    4 1
   8    3   30 1
   9    3   31 1
  10    4    5 1
  11    4   16 1
  12    5    6 1
  13    5   32 1
  14    5   33 1
  15    6   34 1
  16    6   35 1
  17    7    8 2
  18    7    9 am
  19    9   10 1
  20    9   36 1
  21   10   11 ar
  22   10   15 ar
  23   11   12 ar
  24   11   27 1
  25   12   13 ar
  26   12   37 1
  27   13   14 ar
  28   13   38 1
  29   14   15 ar
  30   14   39 1
  31   15   40 1
  32   16   17 1
  33   16   41 1
  34   16   42 1
  35   17   18 ar
  36   17   22 ar
  37   18   19 ar
  38   18   43 1
  39   19   20 ar
  40   20   21 ar
  41   20   24 ar
  42   21   22 ar
  43   21   23 ar
  44   22   44 1
  45   23   26 ar
  46   23   45 1
  47   24   25 ar
  48   24   46 1
  49   25   26 ar
  50   25   47 1
  51   26   48 1

#	End of record

