#	Name: ASD02250003
#	Creating user name:	WinNT
#	Creation time:	15. 06. 2019 20:20

#	Modifying user name:	WinNT
#	Modification time:	15. 06. 2019 20:20

#	Program:	/corina/corina34_cracker 3.40 0067  02.08.2006

@<TRIPOS>MOLECULE
ASD02250003
  78   81    0    0    0
SMALL
NO_CHARGES


@<TRIPOS>ATOM
   1 C1             0.4143     0.5460     1.2504 C.3     
   2 C2             0.6464    -0.9642     1.2228 C.3     
   3 C3             1.6907    -1.3599     2.2687 C.3     
   4 C4             2.9950    -0.6109     1.9923 C.3     
   5 C5             2.7624     0.8955     2.0624 C.3     
   6 C6             1.7281     1.2913     1.0101 C.3     
   7 C7             4.0760    -1.0484     2.9769 C.3     
   8 C8             5.3845    -0.3092     2.6745 C.3     
   9 C9             5.1664     0.6101     1.4696 C.3     
  10 C10            4.0893     1.6340     1.8140 C.3     
  11 C11            6.4393     1.2363     0.9946 C.3     
  12 C12            6.4196     2.7795     1.0437 C.3     
  13 C13            5.2592     3.2914     0.2418 C.3     
  14 C14            3.9294     2.7066     0.7574 C.3     
  15 C15            7.7294     0.9310     1.7728 C.3     
  16 C16            8.7186     1.9437     1.1242 C.3     
  17 C17            7.8500     3.1226     0.6041 C.3     
  18 O18            1.0935    -1.3585    -0.0756 O.3     
  19 O19            5.3573     2.9354    -1.1461 O.3     
  20 C20            8.0207     3.2713    -0.8980 C.3     
  21 C21            7.7496     1.9276    -1.5776 C.3     
  22 C22            7.9025     2.0820    -3.0921 C.3     
  23 C23            7.6355     0.7585    -3.7615 C.2     
  24 N24            7.7130     0.6541    -5.1029 N.am    
  25 O25            7.3510    -0.2126    -3.0930 O.2     
  26 C26            7.4534    -0.6325    -5.7537 C.3     
  27 C27            7.6063    -0.4781    -7.2682 C.3     
  28 C28            6.3329     3.3143     2.4862 C.3     
  29 C29            2.2599     1.3017     3.4508 C.3     
  30 C30            9.4505     3.7198    -1.2068 C.3     
  31 S31            7.2850    -2.0712    -8.0739 S.o2    
  32 O32            6.1492    -2.7014    -7.4976 O.2     
  33 O33            7.4210    -1.9535    -9.4835 O.2     
  34 H34           -0.2877     0.8080     0.4492 H       
  35 H35           -0.0270     0.8392     2.1987 H       
  36 H36           -0.2940    -1.4747     1.4462 H       
  37 H37            1.3220    -1.1453     3.2662 H       
  38 H38            1.8779    -2.4365     2.1898 H       
  39 H39            3.3183    -0.8746     0.9765 H       
  40 H40            2.1034     1.0354     0.0170 H       
  41 H41            1.5467     2.3657     1.0616 H       
  42 H42            3.7677    -0.8502     4.0003 H       
  43 H43            4.2453    -2.1248     2.8665 H       
  44 H44            5.6757     0.2864     3.5385 H       
  45 H45            6.1666    -1.0314     2.4435 H       
  46 H46            4.7862    -0.0204     0.6432 H       
  47 H47            4.3127     2.0905     2.7853 H       
  48 H48            6.6075     0.9186    -0.0564 H       
  49 H49            5.2132     4.3877     0.3120 H       
  50 H50            3.3887     2.2975    -0.1072 H       
  51 H51            3.3220     3.5281     1.1609 H       
  52 H52            7.6241     1.0954     2.8351 H       
  53 H53            8.0572    -0.0917     1.5712 H       
  54 H54            9.4254     2.3032     1.8687 H       
  55 H55            9.2409     1.4733     0.2938 H       
  56 H56            8.1619     4.0448     1.1091 H       
  57 H57            0.4691    -1.1546    -0.7853 H       
  58 H58            4.6212     3.2533    -1.6866 H       
  59 H59            7.3176     4.0158    -1.2716 H       
  60 H60            8.4616     1.1865    -1.2142 H       
  61 H61            6.7357     1.6013    -1.3461 H       
  62 H62            7.1905     2.8231    -3.4554 H       
  63 H63            8.9165     2.4083    -3.3235 H       
  64 H64            7.9405     1.4308    -5.6375 H       
  65 H65            8.1654    -1.3736    -5.3903 H       
  66 H66            6.4395    -0.9588    -5.5222 H       
  67 H67            6.8943     0.2630    -7.6315 H       
  68 H68            8.6203    -0.1519    -7.4996 H       
  69 H69            7.3185     3.2706     2.9497 H       
  70 H70            5.9842     4.3468     2.4706 H       
  71 H71            5.6348     2.7036     3.0588 H       
  72 H72            3.0006     1.0244     4.2008 H       
  73 H73            2.1006     2.3796     3.4786 H       
  74 H74            1.3206     0.7901     3.6613 H       
  75 H75           10.1475     2.9300    -0.9269 H       
  76 H76            9.5442     3.9261    -2.2730 H       
  77 H77            9.6783     4.6230    -0.6407 H       
  78 H78            8.3186    -2.8486    -7.7047 H       
@<TRIPOS>BOND
   1    1    2 1
   2    1    6 1
   3    1   34 1
   4    1   35 1
   5    2    3 1
   6    2   18 1
   7    2   36 1
   8    3    4 1
   9    3   37 1
  10    3   38 1
  11    4    5 1
  12    4    7 1
  13    4   39 1
  14    5    6 1
  15    5   29 1
  16    5   10 1
  17    6   40 1
  18    6   41 1
  19    7    8 1
  20    7   42 1
  21    7   43 1
  22    8    9 1
  23    8   44 1
  24    8   45 1
  25    9   10 1
  26    9   11 1
  27    9   46 1
  28   10   14 1
  29   10   47 1
  30   11   12 1
  31   11   15 1
  32   11   48 1
  33   12   28 1
  34   12   13 1
  35   12   17 1
  36   13   14 1
  37   13   19 1
  38   13   49 1
  39   14   50 1
  40   14   51 1
  41   15   16 1
  42   15   52 1
  43   15   53 1
  44   16   17 1
  45   16   54 1
  46   16   55 1
  47   17   20 1
  48   17   56 1
  49   18   57 1
  50   19   58 1
  51   20   21 1
  52   20   30 1
  53   20   59 1
  54   21   22 1
  55   21   60 1
  56   21   61 1
  57   22   23 1
  58   22   62 1
  59   22   63 1
  60   23   24 am
  61   23   25 2
  62   24   26 1
  63   24   64 1
  64   26   27 1
  65   26   65 1
  66   26   66 1
  67   27   31 1
  68   27   67 1
  69   27   68 1
  70   28   69 1
  71   28   70 1
  72   28   71 1
  73   29   72 1
  74   29   73 1
  75   29   74 1
  76   30   75 1
  77   30   76 1
  78   30   77 1
  79   31   32 2
  80   31   33 2
  81   31   78 1

#	End of record

