#	Name: ASD02198615
#	Creating user name:	WinNT
#	Creation time:	15. 06. 2019 20:19

#	Modifying user name:	WinNT
#	Modification time:	15. 06. 2019 20:19

#	Program:	/corina/corina34_cracker 3.40 0067  02.08.2006

@<TRIPOS>MOLECULE
ASD02198615
  44   47    0    0    0
SMALL
NO_CHARGES


@<TRIPOS>ATOM
   1 C1             0.4212     1.2166     0.2051 C.2     
   2 C2             0.5239    -0.1164     0.4358 C.2     
   3 N3             1.7342    -0.7109     0.5386 N.pl3   
   4 N4             2.8422    -0.0757     0.4286 N.2     
   5 C5             2.8859     1.2195     0.2045 C.2     
   6 C6             1.6197     1.9592     0.0765 C.2     
   7 C7             1.7793    -2.0884     0.7775 C.ar    
   8 C8             2.9939    -2.7613     0.7438 C.ar    
   9 C9             3.0348    -4.1215     0.9801 C.ar    
  10 C10            1.8684    -4.8133     1.2500 C.ar    
  11 C11            0.6572    -4.1463     1.2843 C.ar    
  12 C12            0.6098    -2.7856     1.0546 C.ar    
  13 C13            4.1817     1.9192     0.0838 C.2     
  14 N14            5.2951     1.4576    -0.5545 N.pl3   
  15 N15            6.2940     2.4312    -0.4296 N.2     
  16 C16            5.8148     3.4401     0.2524 C.2     
  17 C17            4.4903     3.1625     0.5897 C.2     
  18 C18            5.4235     0.1726    -1.2464 C.3     
  19 C19            5.0693     0.3476    -2.7007 C.ar    
  20 O20            1.6037     3.1630    -0.1322 O.2     
  21 C21            6.0598     0.6218    -3.6252 C.ar    
  22 C22            4.3521    -4.8525     0.9433 C.3     
  23 F23            4.9227    -4.8499     2.2207 F       
  24 F24            4.1418    -6.1721     0.5292 F       
  25 F25            5.2149    -4.2141     0.0459 F       
  26 C26            5.7349     0.7823    -4.9591 C.ar    
  27 C27            4.4196     0.6682    -5.3688 C.ar    
  28 C28            3.4292     0.3931    -4.4444 C.ar    
  29 C29            3.7546     0.2283    -3.1111 C.ar    
  30 H30           -0.5432     1.6948     0.1180 H       
  31 H31           -0.3723    -0.7102     0.5390 H       
  32 H32            3.9053    -2.2216     0.5328 H       
  33 H33            1.9032    -5.8769     1.4340 H       
  34 H34           -0.2520    -4.6898     1.4950 H       
  35 H35           -0.3363    -2.2654     1.0815 H       
  36 H36            6.3542     4.3402     0.5080 H       
  37 H37            3.8280     3.8039     1.1521 H       
  38 H38            6.4500    -0.1841    -1.1628 H       
  39 H39            4.7485    -0.5532    -0.7928 H       
  40 H40            7.0874     0.7109    -3.3051 H       
  41 H41            6.5086     0.9972    -5.6813 H       
  42 H42            4.1656     0.7943    -6.4109 H       
  43 H43            2.4015     0.3043    -4.7644 H       
  44 H44            2.9809     0.0134    -2.3889 H       
@<TRIPOS>BOND
   1    1    2 2
   2    1    6 1
   3    1   30 1
   4    2    3 1
   5    2   31 1
   6    3    4 1
   7    3    7 1
   8    4    5 2
   9    5    6 1
  10    5   13 1
  11    6   20 2
  12    7    8 ar
  13    7   12 ar
  14    8    9 ar
  15    8   32 1
  16    9   10 ar
  17    9   22 1
  18   10   11 ar
  19   10   33 1
  20   11   12 ar
  21   11   34 1
  22   12   35 1
  23   13   14 1
  24   13   17 2
  25   14   15 1
  26   14   18 1
  27   15   16 2
  28   16   17 1
  29   16   36 1
  30   17   37 1
  31   18   19 1
  32   18   38 1
  33   18   39 1
  34   19   21 ar
  35   19   29 ar
  36   21   26 ar
  37   21   40 1
  38   22   23 1
  39   22   24 1
  40   22   25 1
  41   26   27 ar
  42   26   41 1
  43   27   28 ar
  44   27   42 1
  45   28   29 ar
  46   28   43 1
  47   29   44 1

#	End of record

