#	Name: ASD01148685
#	Creating user name:	WinNT
#	Creation time:	15. 06. 2019 19:03

#	Modifying user name:	WinNT
#	Modification time:	15. 06. 2019 19:03

#	Program:	/corina/corina34_cracker 3.40 0067  02.08.2006

@<TRIPOS>MOLECULE
ASD01148685
  42   44    0    0    0
SMALL
NO_CHARGES


@<TRIPOS>ATOM
   1 C1            -0.0166     1.3766     0.0096 C.ar    
   2 C2             0.0021    -0.0041     0.0020 C.ar    
   3 C3             1.1761     2.0946     0.0021 C.ar    
   4 C4             2.3883     1.4410    -0.0130 C.ar    
   5 C5             2.4286     0.0511    -0.0208 C.ar    
   6 C6             1.2253    -0.6773    -0.0133 C.ar    
   7 N7             3.4581    -0.8663    -0.0360 N.pl3   
   8 C8             2.9489    -2.1361    -0.0382 C.2     
   9 C9             1.6074    -2.0915    -0.0249 C.2     
  10 C10            0.6714    -3.2726    -0.0221 C.3     
  11 C11            0.2417    -3.5863    -1.4566 C.3     
  12 N12           -0.6681    -4.7345    -1.4538 N.am    
  13 C13           -1.1780    -5.1931    -2.6140 C.2     
  14 C14           -2.0982    -6.3544    -2.6112 C.2     
  15 O15           -0.8832    -4.6542    -3.6623 O.2     
  16 O16           -2.4081    -6.9313    -1.4434 O.3     
  17 C17           -3.4493    -7.7487    -1.3269 C.2     
  18 C18           -4.0608    -8.3040    -2.4313 C.2     
  19 C19           -3.5262    -7.9406    -3.7588 C.2     
  20 C20           -2.6023    -6.7936    -3.7908 C.2     
  21 O21           -3.8344    -8.5510    -4.7681 O.2     
  22 C22           -5.2020    -9.2239    -2.2920 C.2     
  23 O23           -1.2050     2.0377     0.0188 O.3     
  24 C24           -1.1529     3.4657     0.0263 C.3     
  25 O25           -5.7800    -9.7517    -3.3892 O.3     
  26 O26           -5.6228    -9.5073    -1.1877 O.2     
  27 H27           -0.9239    -0.5599     0.0082 H       
  28 H28            1.1506     3.1743     0.0077 H       
  29 H29            3.3075     2.0080    -0.0191 H       
  30 H30            4.4024    -0.6444    -0.0442 H       
  31 H31            3.5390    -3.0406    -0.0490 H       
  32 H32            1.1801    -4.1382     0.4024 H       
  33 H33           -0.2080    -3.0379     0.5776 H       
  34 H34           -0.2669    -2.7207    -1.8810 H       
  35 H35            1.1212    -3.8211    -2.0562 H       
  36 H36           -0.9035    -5.1648    -0.6169 H       
  37 H37           -3.8260    -7.9844    -0.3426 H       
  38 H38           -2.3293    -6.3230    -4.7238 H       
  39 H39           -0.6220     3.8052     0.9157 H       
  40 H40           -0.6304     3.8149    -0.8642 H       
  41 H41           -2.1666     3.8662     0.0333 H       
  42 H42           -6.5260   -10.3504    -3.2475 H       
@<TRIPOS>BOND
   1    1    2 ar
   2    1    3 ar
   3    1   23 1
   4    2    6 ar
   5    2   27 1
   6    3    4 ar
   7    3   28 1
   8    4    5 ar
   9    4   29 1
  10    5    6 ar
  11    5    7 1
  12    6    9 1
  13    7    8 1
  14    7   30 1
  15    8    9 2
  16    8   31 1
  17    9   10 1
  18   10   11 1
  19   10   32 1
  20   10   33 1
  21   11   12 1
  22   11   34 1
  23   11   35 1
  24   12   13 am
  25   12   36 1
  26   13   14 1
  27   13   15 2
  28   14   16 1
  29   14   20 2
  30   16   17 1
  31   17   18 2
  32   17   37 1
  33   18   19 1
  34   18   22 1
  35   19   20 1
  36   19   21 2
  37   20   38 1
  38   22   25 1
  39   22   26 2
  40   23   24 1
  41   24   39 1
  42   24   40 1
  43   24   41 1
  44   25   42 1

#	End of record

