#	Name: ASD01884132
#	Creating user name:	WinNT
#	Creation time:	15. 06. 2019 19:47

#	Modifying user name:	WinNT
#	Modification time:	15. 06. 2019 19:47

#	Program:	/corina/corina34_cracker 3.40 0067  02.08.2006

@<TRIPOS>MOLECULE
ASD01884132
  52   56    0    0    0
SMALL
NO_CHARGES


@<TRIPOS>ATOM
   1 C1            -0.8460    -0.1816    -0.9932 C.2     
   2 C2            -0.0271    -0.0493     0.0952 C.2     
   3 C3            -0.3893     0.8327     1.1366 C.2     
   4 C4            -1.5337     1.5397     1.0608 C.2     
   5 N5            -2.3573     1.4147    -0.0198 N.pl3   
   6 C6            -2.0315     0.5706    -1.0536 C.2     
   7 N7            -3.0075     0.6609    -1.9441 N.2     
   8 C8            -3.5474     1.9843    -0.3659 C.2     
   9 N9            -3.8949     1.4936    -1.5264 N.2     
  10 C10           -4.3214     2.9928     0.4432 C.3     
  11 C11           -3.8785     4.4053     0.0564 C.3     
  12 C12           -4.6324     5.5790     0.6848 C.3     
  13 C13           -3.2068     5.2557     1.1365 C.3     
  14 N14            1.1547    -0.7797     0.1753 N.pl3   
  15 C15            1.1234    -2.2439     0.2921 C.3     
  16 C16            1.9523    -2.6591     1.5116 C.3     
  17 C17            3.3589    -2.0681     1.3925 C.3     
  18 C18            3.2716    -0.5404     1.3653 C.3     
  19 C19            2.4577    -0.1016     0.1384 C.3     
  20 C20            4.1878    -2.5025     2.5738 C.ar    
  21 C21            5.3450    -3.2360     2.3748 C.ar    
  22 C22            6.1062    -3.6350     3.4602 C.ar    
  23 C23            5.7093    -3.3001     4.7430 C.ar    
  24 C24            4.5513    -2.5663     4.9396 C.ar    
  25 C25            3.7953    -2.1638     3.8552 C.ar    
  26 F26            5.7311    -3.5626     1.1220 F       
  27 F27            6.4509    -3.6892     5.8031 F       
  28 C28           -0.4781    -1.1175    -2.1156 C.3     
  29 F29           -0.9355    -2.4056    -1.8176 F       
  30 F30           -1.0698    -0.6758    -3.3039 F       
  31 F31            0.9125    -1.1399    -2.2673 F       
  32 H32            0.2535     0.9408     1.9978 H       
  33 H33           -1.8018     2.2114     1.8629 H       
  34 H34           -5.3868     2.8785     0.2432 H       
  35 H35           -4.1315     2.8302     1.5042 H       
  36 H36           -3.5273     4.5236    -0.9686 H       
  37 H37           -4.7768     6.4697     0.0734 H       
  38 H38           -5.4439     5.3449     1.3739 H       
  39 H39           -3.0804     4.8088     2.1226 H       
  40 H40           -2.4133     5.9336     0.8221 H       
  41 H41            0.0938    -2.5784     0.4191 H       
  42 H42            1.5469    -2.6914    -0.6071 H       
  43 H43            1.4767    -2.2864     2.4188 H       
  44 H44            2.0170    -3.7464     1.5545 H       
  45 H45            3.8247    -2.4216     0.4727 H       
  46 H46            2.7835    -0.1876     2.2738 H       
  47 H47            4.2752    -0.1196     1.3040 H       
  48 H48            2.9921    -0.3748    -0.7714 H       
  49 H49            2.3075     0.9776     0.1664 H       
  50 H50            7.0089    -4.2075     3.3059 H       
  51 H51            4.2412    -2.3051     5.9406 H       
  52 H52            2.8924    -1.5916     4.0094 H       
@<TRIPOS>BOND
   1    1    2 2
   2    1   28 1
   3    1    6 1
   4    2    3 1
   5    2   14 1
   6    3    4 2
   7    3   32 1
   8    4    5 1
   9    4   33 1
  10    5    6 1
  11    5    8 1
  12    6    7 2
  13    7    9 1
  14    8    9 2
  15    8   10 1
  16   10   11 1
  17   10   34 1
  18   10   35 1
  19   11   12 1
  20   11   13 1
  21   11   36 1
  22   12   13 1
  23   12   37 1
  24   12   38 1
  25   13   39 1
  26   13   40 1
  27   14   15 1
  28   14   19 1
  29   15   16 1
  30   15   41 1
  31   15   42 1
  32   16   17 1
  33   16   43 1
  34   16   44 1
  35   17   18 1
  36   17   20 1
  37   17   45 1
  38   18   19 1
  39   18   46 1
  40   18   47 1
  41   19   48 1
  42   19   49 1
  43   20   21 ar
  44   20   25 ar
  45   21   22 ar
  46   21   26 1
  47   22   23 ar
  48   22   50 1
  49   23   24 ar
  50   23   27 1
  51   24   25 ar
  52   24   51 1
  53   25   52 1
  54   28   29 1
  55   28   30 1
  56   28   31 1

#	End of record

