#	Name: ASD01911144
#	Creating user name:	WinNT
#	Creation time:	15. 06. 2019 19:57

#	Modifying user name:	WinNT
#	Modification time:	15. 06. 2019 19:57

#	Program:	/corina/corina34_cracker 3.40 0067  02.08.2006

@<TRIPOS>MOLECULE
ASD01911144
  43   47    0    0    0
SMALL
NO_CHARGES


@<TRIPOS>ATOM
   1 C1            -0.0167     1.3769     0.0096 C.ar    
   2 C2             0.0021    -0.0041     0.0020 C.ar    
   3 C3             1.2148    -0.6805    -0.0132 C.ar    
   4 C4             2.4052     0.0345    -0.0208 C.ar    
   5 C5             2.3798     1.4153    -0.0132 C.ar    
   6 C6             1.1705     2.0860     0.0021 C.ar    
   7 N7             1.2372    -2.0811    -0.0205 N.pl3   
   8 N8             0.3284    -2.9225     0.6337 N.2     
   9 C9             0.6733    -4.1704     0.3942 C.2     
  10 C10            1.8185    -4.1608    -0.4243 C.2     
  11 C11            2.1430    -2.8640    -0.6698 C.2     
  12 C12           -0.0244    -5.3783     0.9001 C.ar    
  13 C13           -1.1534    -5.2476     1.7062 C.ar    
  14 C14           -1.7984    -6.3745     2.1741 C.ar    
  15 C15           -1.3261    -7.6320     1.8441 C.ar    
  16 C16           -0.2055    -7.7676     1.0447 C.ar    
  17 C17            0.4437    -6.6476     0.5662 C.ar    
  18 N18            3.2144    -2.4161    -1.4402 N.am    
  19 C19            4.0435    -3.3047    -2.0228 C.2     
  20 C20            5.1690    -2.8341    -2.8321 C.2     
  21 O21            3.8564    -4.4987    -1.8761 O.2     
  22 S22            5.5564    -1.1494    -3.1266 S.3     
  23 C23            6.9501    -1.5970    -4.1180 C.2     
  24 C24            7.0599    -2.9647    -4.1821 C.2     
  25 C25            6.0531    -3.6285    -3.4485 C.2     
  26 S26            8.2447    -0.8395    -5.0512 S.3     
  27 C27            8.9095    -2.3935    -5.5100 C.2     
  28 C28            8.2093    -3.3796    -4.9992 C.2     
  29 H29           -0.9595     1.9036     0.0169 H       
  30 H30           -0.9254    -0.5573     0.0083 H       
  31 H31            3.3499    -0.4887    -0.0323 H       
  32 H32            3.3053     1.9719    -0.0187 H       
  33 H33            1.1533     3.1658     0.0077 H       
  34 H34            2.3433    -5.0291    -0.7946 H       
  35 H35           -1.5229    -4.2662     1.9647 H       
  36 H36           -2.6734    -6.2743     2.7992 H       
  37 H37           -1.8338    -8.5111     2.2124 H       
  38 H38            0.1595    -8.7519     0.7907 H       
  39 H39            1.3186    -6.7546    -0.0580 H       
  40 H40            3.3634    -1.4648    -1.5571 H       
  41 H41            5.9949    -4.7056    -3.3947 H       
  42 H42            9.7824    -2.5237    -6.1325 H       
  43 H43            8.4586    -4.4169    -5.1669 H       
@<TRIPOS>BOND
   1    1    2 ar
   2    1    6 ar
   3    1   29 1
   4    2    3 ar
   5    2   30 1
   6    3    4 ar
   7    3    7 1
   8    4    5 ar
   9    4   31 1
  10    5    6 ar
  11    5   32 1
  12    6   33 1
  13    7    8 1
  14    7   11 1
  15    8    9 2
  16    9   10 1
  17    9   12 1
  18   10   11 2
  19   10   34 1
  20   11   18 1
  21   12   13 ar
  22   12   17 ar
  23   13   14 ar
  24   13   35 1
  25   14   15 ar
  26   14   36 1
  27   15   16 ar
  28   15   37 1
  29   16   17 ar
  30   16   38 1
  31   17   39 1
  32   18   19 am
  33   18   40 1
  34   19   20 1
  35   19   21 2
  36   20   22 1
  37   20   25 2
  38   22   23 1
  39   23   24 2
  40   23   26 1
  41   24   25 1
  42   24   28 1
  43   25   41 1
  44   26   27 1
  45   27   28 2
  46   27   42 1
  47   28   43 1

#	End of record

