#	Name: ASD03731453
#	Creating user name:	WinNT
#	Creation time:	15. 06. 2019 20:45

#	Modifying user name:	WinNT
#	Modification time:	15. 06. 2019 20:45

#	Program:	/corina/corina34_cracker 3.40 0067  02.08.2006

@<TRIPOS>MOLECULE
ASD03731453
  63   68    0    0    0
SMALL
NO_CHARGES


@<TRIPOS>ATOM
   1 C1            -0.0179     1.4710     0.0101 C.2     
   2 C2             0.0021    -0.0041     0.0020 C.ar    
   3 C3             1.2212    -0.6879    -0.0133 C.ar    
   4 C4             1.2366    -2.0639    -0.0204 C.ar    
   5 C5             0.0397    -2.7749    -0.0127 C.ar    
   6 C6            -1.1761    -2.0968     0.0021 C.ar    
   7 C7            -1.1980    -0.7209     0.0155 C.ar    
   8 O8             1.0267     2.0932     0.0035 O.2     
   9 N9            -1.1941     2.1289     0.0193 N.am    
  10 C10           -1.2140     3.5938     0.0273 C.3     
  11 C11           -2.6633     4.0841     0.0369 C.3     
  12 C12           -2.6840     5.6140     0.0453 C.3     
  13 O13           -8.8975     2.7075     2.1987 O.3     
  14 C14          -10.3145     2.7610     2.4479 C.3     
  15 O15          -10.5197     4.0854     2.9742 O.3     
  16 C16           -9.5161     4.8476     2.4482 C.ar    
  17 C17           -8.5185     3.9998     1.9724 C.ar    
  18 C18           -9.3712     6.2186     2.3342 C.ar    
  19 C19           -8.2318     6.7608     1.7474 C.ar    
  20 C20           -7.2383     5.9040     1.2833 C.ar    
  21 C21           -7.3825     4.5364     1.3900 C.ar    
  22 O22           -7.9028     8.0654     1.5241 O.3     
  23 C23           -6.1399     6.7766     0.7376 C.3     
  24 C24           -6.4842     8.1650     1.2937 C.3     
  25 N25           -4.0717     6.0835     0.0544 N.am    
  26 C26           -4.7791     6.3190     1.1775 C.2     
  27 C27           -6.0966     6.7694    -0.7617 C.ar    
  28 C28           -7.0122     7.0823    -1.7415 C.ar    
  29 C29           -6.6638     6.9729    -3.0759 C.ar    
  30 C30           -5.3943     6.5479    -3.4232 C.ar    
  31 C31           -4.4740     6.2324    -2.4455 C.ar    
  32 C32           -4.8158     6.3400    -1.0997 C.ar    
  33 O33           -4.3921     6.1875     2.3194 O.2     
  34 N34            0.0585    -4.1653    -0.0203 N.pl3   
  35 C35            1.3370    -4.8804    -0.0364 C.3     
  36 C36           -1.2001    -4.9150    -0.0123 C.3     
  37 H37            2.1501    -0.1369    -0.0199 H       
  38 H38            2.1781    -2.5928    -0.0322 H       
  39 H39           -2.1030    -2.6511     0.0072 H       
  40 H40           -2.1414    -0.1954     0.0318 H       
  41 H41           -2.0275     1.6326     0.0205 H       
  42 H42           -0.7010     3.9592     0.9169 H       
  43 H43           -0.7094     3.9689    -0.8630 H       
  44 H44           -3.1764     3.7187    -0.8527 H       
  45 H45           -3.1679     3.7090     0.9272 H       
  46 H46           -2.1710     5.9794     0.9349 H       
  47 H47           -2.1794     5.9891    -0.8451 H       
  48 H48          -10.8718     2.6268     1.5208 H       
  49 H49          -10.6030     2.0084     3.1816 H       
  50 H50          -10.1476     6.8725     2.7030 H       
  51 H51           -6.6074     3.8824     1.0187 H       
  52 H52           -6.2646     8.9411     0.5605 H       
  53 H53           -5.9526     8.3510     2.2269 H       
  54 H54           -8.0030     7.4137    -1.4680 H       
  55 H55           -7.3813     7.2190    -3.8446 H       
  56 H56           -5.1224     6.4624    -4.4650 H       
  57 H57           -3.4848     5.9007    -2.7246 H       
  58 H58            1.6639    -5.0633     0.9872 H       
  59 H59            1.2147    -5.8317    -0.5542 H       
  60 H60            2.0836    -4.2783    -0.5542 H       
  61 H61           -1.5221    -5.0954    -1.0379 H       
  62 H62           -1.0520    -5.8682     0.4950 H       
  63 H63           -1.9627    -4.3390     0.5119 H       
@<TRIPOS>BOND
   1    1    2 1
   2    1    8 2
   3    1    9 am
   4    2    3 ar
   5    2    7 ar
   6    3    4 ar
   7    3   37 1
   8    4    5 ar
   9    4   38 1
  10    5    6 ar
  11    5   34 1
  12    6    7 ar
  13    6   39 1
  14    7   40 1
  15    9   10 1
  16    9   41 1
  17   10   11 1
  18   10   42 1
  19   10   43 1
  20   11   12 1
  21   11   44 1
  22   11   45 1
  23   12   25 1
  24   12   46 1
  25   12   47 1
  26   13   14 1
  27   13   17 1
  28   14   15 1
  29   14   48 1
  30   14   49 1
  31   15   16 1
  32   16   17 ar
  33   16   18 ar
  34   17   21 ar
  35   18   19 ar
  36   18   50 1
  37   19   20 ar
  38   19   22 1
  39   20   21 ar
  40   20   23 1
  41   21   51 1
  42   22   24 1
  43   23   24 1
  44   23   26 1
  45   23   27 1
  46   24   52 1
  47   24   53 1
  48   25   26 am
  49   25   32 1
  50   26   33 2
  51   27   28 ar
  52   27   32 ar
  53   28   29 ar
  54   28   54 1
  55   29   30 ar
  56   29   55 1
  57   30   31 ar
  58   30   56 1
  59   31   32 ar
  60   31   57 1
  61   34   35 1
  62   34   36 1
  63   35   58 1
  64   35   59 1
  65   35   60 1
  66   36   61 1
  67   36   62 1
  68   36   63 1

#	End of record

