#	Name: ASD01230741
#	Creating user name:	WinNT
#	Creation time:	15. 06. 2019 19:15

#	Modifying user name:	WinNT
#	Modification time:	15. 06. 2019 19:15

#	Program:	/corina/corina34_cracker 3.40 0067  02.08.2006

@<TRIPOS>MOLECULE
ASD01230741
  47   50    0    0    0
SMALL
NO_CHARGES


@<TRIPOS>ATOM
   1 C1            -0.0209     1.5325    -0.0053 C.3     
   2 C2            -0.0034     0.0074     0.1293 C.3     
   3 C3            -1.4140    -0.5642     0.1057 C.3     
   4 C4            -2.4544     0.4170     0.6273 C.3     
   5 N5            -1.8686     1.3533     1.5893 N.pl3   
   6 C6            -0.7744     2.0788     1.1954 C.2     
   7 C7            -2.4185     1.4770     2.9370 C.3     
   8 C8            -2.6991     2.9498     3.2399 C.3     
   9 S9            -1.1876     3.9149     2.9798 S.o2    
  10 N10           -0.3975     3.1666     1.7436 N.am    
  11 C11            1.3894     2.0637    -0.0117 C.ar    
  12 C12            1.8542     2.7744    -1.1032 C.ar    
  13 O13           -1.5029     5.2003     2.4625 O.2     
  14 O14           -0.3110     3.7718     4.0889 O.2     
  15 C15            2.2140     1.8444     1.0758 C.ar    
  16 C16            3.5078     2.3305     1.0737 C.ar    
  17 C17            3.9798     3.0386    -0.0208 C.ar    
  18 C18            3.1481     3.2624    -1.1114 C.ar    
  19 O19            5.2520     3.5179    -0.0248 O.3     
  20 C20            5.4525     4.7956     0.3849 C.ar    
  21 C21            6.7465     5.2891     0.4906 C.ar    
  22 F22            3.6043     3.9519    -2.1799 F       
  23 C23            6.9374     6.5944     0.9097 C.ar    
  24 C24            8.3252     7.1678     1.0370 C.3     
  25 C25            5.8215     7.3632     1.2097 C.ar    
  26 C26            4.5638     6.8072     1.0820 C.ar    
  27 N27            4.4133     5.5614     0.6749 N.ar    
  28 F28            8.7000     7.7554    -0.1760 F       
  29 F29            8.3393     8.1350     2.0477 F       
  30 F30            9.2247     6.1453     1.3575 F       
  31 H31           -0.5294     1.8184    -0.9260 H       
  32 H32            0.5680    -0.4174    -0.6960 H       
  33 H33            0.4757    -0.2626     1.0704 H       
  34 H34           -1.6673    -0.8338    -0.9196 H       
  35 H35           -1.4394    -1.4640     0.7204 H       
  36 H36           -2.8673     0.9783    -0.2108 H       
  37 H37           -3.2567    -0.1384     1.1131 H       
  38 H38           -3.3464     0.9090     3.0043 H       
  39 H39           -1.7010     1.0878     3.6593 H       
  40 H40           -3.4825     3.3148     2.5757 H       
  41 H41           -3.0227     3.0528     4.2757 H       
  42 H42            1.2065     2.9481    -1.9498 H       
  43 H43            1.8466     1.2928     1.9285 H       
  44 H44            4.1508     2.1590     1.9243 H       
  45 H45            7.5925     4.6626     0.2492 H       
  46 H46            5.9356     8.3851     1.5398 H       
  47 H47            3.6923     7.4011     1.3146 H       
@<TRIPOS>BOND
   1    1    2 1
   2    1   11 1
   3    1    6 1
   4    1   31 1
   5    2    3 1
   6    2   32 1
   7    2   33 1
   8    3    4 1
   9    3   34 1
  10    3   35 1
  11    4    5 1
  12    4   36 1
  13    4   37 1
  14    5    6 1
  15    5    7 1
  16    6   10 2
  17    7    8 1
  18    7   38 1
  19    7   39 1
  20    8    9 1
  21    8   40 1
  22    8   41 1
  23    9   10 am
  24    9   13 2
  25    9   14 2
  26   11   12 ar
  27   11   15 ar
  28   12   18 ar
  29   12   42 1
  30   15   16 ar
  31   15   43 1
  32   16   17 ar
  33   16   44 1
  34   17   18 ar
  35   17   19 1
  36   18   22 1
  37   19   20 1
  38   20   21 ar
  39   20   27 ar
  40   21   23 ar
  41   21   45 1
  42   23   24 1
  43   23   25 ar
  44   24   28 1
  45   24   29 1
  46   24   30 1
  47   25   26 ar
  48   25   46 1
  49   26   27 ar
  50   26   47 1

#	End of record

