#	Name: ASD05720236
#	Creating user name:	WinNT
#	Creation time:	15. 06. 2019 21:02

#	Modifying user name:	WinNT
#	Modification time:	15. 06. 2019 21:02

#	Program:	/corina/corina34_cracker 3.40 0067  02.08.2006

@<TRIPOS>MOLECULE
ASD05720236
  48   52    0    0    0
SMALL
NO_CHARGES


@<TRIPOS>ATOM
   1 O1            -0.1053     1.1931     0.1313 O.3     
   2 C2             0.0756    -0.1222    -0.0316 C.2     
   3 N3             1.3623    -0.4853    -0.1227 N.am    
   4 C4             2.2046     0.7155    -0.0115 C.3     
   5 C5             1.1891     1.8613     0.1624 C.3     
   6 O6            -0.8429    -0.9154    -0.0909 O.2     
   7 C7             3.0269     0.9150    -1.2863 C.3     
   8 C8             2.0851     1.0595    -2.4833 C.3     
   9 C9             3.8781     2.1792    -1.1515 C.3     
  10 C10            3.5743    -3.2484    -0.6481 C.2     
  11 N11            3.1121    -2.0052    -0.4823 N.2     
  12 C12            1.8250    -1.7834    -0.2937 C.2     
  13 C13            0.9195    -2.8636    -0.2652 C.2     
  14 C14            1.3836    -4.1227    -0.4325 C.2     
  15 N15            2.7225    -4.3210    -0.6260 N.pl3   
  16 N16            3.4830    -5.4789    -0.8240 N.2     
  17 C17            4.7439    -5.1499    -0.9628 C.2     
  18 C18            4.8611    -3.7580    -0.8667 C.2     
  19 C19            6.1109    -2.9721    -0.9742 C.ar    
  20 C20            6.5848    -2.2582     0.1295 C.ar    
  21 C21            7.7484    -1.5274     0.0282 C.ar    
  22 C22            8.4525    -1.5001    -1.1758 C.ar    
  23 C23            7.9795    -2.2125    -2.2773 C.ar    
  24 C24            6.8195    -2.9483    -2.1762 C.ar    
  25 N25           11.5316     0.2262    -2.0226 N.pl3   
  26 N26           10.4540    -0.6086    -2.3604 N.2     
  27 C27            9.7044    -0.7125    -1.2845 C.2     
  28 N28           10.2597     0.0113    -0.3028 N.2     
  29 C29           11.3550     0.5773    -0.7362 C.2     
  30 Cl30           5.7077    -2.2916     1.6272 Cl      
  31 H31            2.8568     0.6464     0.8591 H       
  32 H32            1.2716     2.5729    -0.6591 H       
  33 H33            1.3379     2.3618     1.1192 H       
  34 H34            3.6774     0.0535    -1.4376 H       
  35 H35            1.3791     1.8682    -2.2946 H       
  36 H36            2.6660     1.2855    -3.3775 H       
  37 H37            1.5392     0.1276    -2.6307 H       
  38 H38            4.6085     2.0422    -0.3541 H       
  39 H39            4.3971     2.3697    -2.0908 H       
  40 H40            3.2350     3.0265    -0.9134 H       
  41 H41           -0.1348    -2.6872    -0.1107 H       
  42 H42            0.7044    -4.9622    -0.4133 H       
  43 H43            5.5587    -5.8393    -1.1284 H       
  44 H44            8.1153    -0.9754     0.8809 H       
  45 H45            8.5253    -2.1907    -3.2090 H       
  46 H46            6.4559    -3.5031    -3.0285 H       
  47 H47           12.2621     0.4937    -2.6020 H       
  48 H48           12.0066     1.2177    -0.1602 H       
@<TRIPOS>BOND
   1    1    2 1
   2    1    5 1
   3    2    3 am
   4    2    6 2
   5    3    4 1
   6    3   12 1
   7    4    5 1
   8    4    7 1
   9    4   31 1
  10    5   32 1
  11    5   33 1
  12    7    8 1
  13    7    9 1
  14    7   34 1
  15    8   35 1
  16    8   36 1
  17    8   37 1
  18    9   38 1
  19    9   39 1
  20    9   40 1
  21   10   11 1
  22   10   15 1
  23   10   18 2
  24   11   12 2
  25   12   13 1
  26   13   14 2
  27   13   41 1
  28   14   15 1
  29   14   42 1
  30   15   16 1
  31   16   17 2
  32   17   18 1
  33   17   43 1
  34   18   19 1
  35   19   20 ar
  36   19   24 ar
  37   20   21 ar
  38   20   30 1
  39   21   22 ar
  40   21   44 1
  41   22   23 ar
  42   22   27 1
  43   23   24 ar
  44   23   45 1
  45   24   46 1
  46   25   26 1
  47   25   29 1
  48   25   47 1
  49   26   27 2
  50   27   28 1
  51   28   29 2
  52   29   48 1

#	End of record

