#	Name: ASD01814744
#	Creating user name:	WinNT
#	Creation time:	15. 06. 2019 19:32

#	Modifying user name:	WinNT
#	Modification time:	15. 06. 2019 19:32

#	Program:	/corina/corina34_cracker 3.40 0067  02.08.2006

@<TRIPOS>MOLECULE
ASD01814744
  61   65    0    0    0
SMALL
NO_CHARGES


@<TRIPOS>ATOM
   1 C1            -0.0171     1.4087     0.0098 C.ar    
   2 C2             0.0021    -0.0041     0.0020 C.ar    
   3 C3             1.2262    -0.6777    -0.0133 C.ar    
   4 C4             2.3763     0.0675    -0.0202 C.ar    
   5 C5             2.2915     1.4625    -0.0119 C.ar    
   6 N6             1.1197     2.0825     0.0026 N.ar    
   7 N7            -1.3383     1.7910     0.0300 N.pl3   
   8 C8            -1.3961    -0.4296     0.0131 C.2     
   9 C9            -2.1447     0.6868     0.0352 C.2     
  10 C10            3.5351     2.2640    -0.0195 C.2     
  11 O11            4.6161     1.7084    -0.0328 O.2     
  12 N12            3.4693     3.6101    -0.0116 N.am    
  13 C13            1.2803    -2.1837    -0.0214 C.3     
  14 C14            2.2924    -2.8709    -2.2094 C.ar    
  15 C15            1.1609    -2.6830    -1.4382 C.ar    
  16 C16           -0.0864    -2.9590    -1.9809 C.ar    
  17 C17           -0.1529    -3.4161    -3.2853 C.ar    
  18 C18            1.0282    -3.5828    -4.0054 C.ar    
  19 N19            2.2012    -3.3079    -3.4495 N.ar    
  20 N20            1.5679    -4.7799    -7.3889 N.pl3   
  21 N21            0.1694    -4.7321    -7.3415 N.2     
  22 C22           -0.1921    -4.3101    -6.1592 C.2     
  23 C23            0.9739    -4.0719    -5.4046 C.2     
  24 C24            2.0445    -4.3731    -6.1965 C.2     
  25 C25            2.3739    -5.2053    -8.5359 C.3     
  26 C26           -1.8117     3.1773     0.0494 C.3     
  27 C27            4.7007     4.4037    -0.0191 C.3     
  28 C28            4.4271     5.7756     0.6005 C.3     
  29 C29            5.7131     6.6044     0.5927 C.3     
  30 C30            6.1962     6.7827    -0.8481 C.3     
  31 C31            6.4698     5.4108    -1.4677 C.3     
  32 C32            5.1838     4.5820    -1.4599 C.3     
  33 O33            3.9759     5.6090     1.9461 O.3     
  34 H34            3.3404    -0.4192    -0.0317 H       
  35 H35           -1.7587    -1.4469     0.0107 H       
  36 H36           -3.2243     0.7084     0.0505 H       
  37 H37            2.6066     4.0535    -0.0010 H       
  38 H38            2.2283    -2.5155     0.4021 H       
  39 H39            0.4579    -2.5800     0.5741 H       
  40 H40            3.2641    -2.6528    -1.7916 H       
  41 H41           -0.9850    -2.8204    -1.3980 H       
  42 H42           -1.1070    -3.6409    -3.7388 H       
  43 H43           -1.2074    -4.1680    -5.8196 H       
  44 H44            3.0852    -4.2989    -5.9173 H       
  45 H45            2.5957    -4.3426    -9.1641 H       
  46 H46            3.3059    -5.6459    -8.1816 H       
  47 H47            1.8200    -5.9439    -9.1153 H       
  48 H48           -1.9115     3.5127     1.0818 H       
  49 H49           -1.0958     3.8130    -0.4715 H       
  50 H50           -2.7800     3.2376    -0.4474 H       
  51 H51            5.4677     3.8898     0.5603 H       
  52 H52            3.6601     6.2895     0.0211 H       
  53 H53            5.5182     7.5818     1.0341 H       
  54 H54            6.4801     6.0905     1.1721 H       
  55 H55            5.4292     7.2966    -1.4275 H       
  56 H56            7.1124     7.3732    -0.8536 H       
  57 H57            6.8140     5.5379    -2.4941 H       
  58 H58            7.2368     4.8969    -0.8883 H       
  59 H59            5.3787     3.6047    -1.9013 H       
  60 H60            4.4168     5.0959    -2.0393 H       
  61 H61            3.7828     6.4398     2.4019 H       
@<TRIPOS>BOND
   1    1    2 ar
   2    1    6 ar
   3    1    7 1
   4    2    3 ar
   5    2    8 1
   6    3    4 ar
   7    3   13 1
   8    4    5 ar
   9    4   34 1
  10    5    6 ar
  11    5   10 1
  12    7    9 1
  13    7   26 1
  14    8    9 2
  15    8   35 1
  16    9   36 1
  17   10   11 2
  18   10   12 am
  19   12   27 1
  20   12   37 1
  21   13   15 1
  22   13   38 1
  23   13   39 1
  24   14   15 ar
  25   14   19 ar
  26   14   40 1
  27   15   16 ar
  28   16   17 ar
  29   16   41 1
  30   17   18 ar
  31   17   42 1
  32   18   19 ar
  33   18   23 1
  34   20   21 1
  35   20   24 1
  36   20   25 1
  37   21   22 2
  38   22   23 1
  39   22   43 1
  40   23   24 2
  41   24   44 1
  42   25   45 1
  43   25   46 1
  44   25   47 1
  45   26   48 1
  46   26   49 1
  47   26   50 1
  48   27   28 1
  49   27   32 1
  50   27   51 1
  51   28   29 1
  52   28   33 1
  53   28   52 1
  54   29   30 1
  55   29   53 1
  56   29   54 1
  57   30   31 1
  58   30   55 1
  59   30   56 1
  60   31   32 1
  61   31   57 1
  62   31   58 1
  63   32   59 1
  64   32   60 1
  65   33   61 1

#	End of record

