#	Name: ASD03082414
#	Creating user name:	WinNT
#	Creation time:	15. 06. 2019 20:27

#	Modifying user name:	WinNT
#	Modification time:	15. 06. 2019 20:27

#	Program:	/corina/corina34_cracker 3.40 0067  02.08.2006

@<TRIPOS>MOLECULE
ASD03082414
  49   51    0    0    0
SMALL
NO_CHARGES


@<TRIPOS>ATOM
   1 C1             1.2112     3.4992    -0.4095 C.ar    
   2 C2             2.3464     4.2043    -0.0316 C.ar    
   3 C3             2.3080     5.5829     0.0473 C.ar    
   4 C4             1.1411     6.2628    -0.2494 C.ar    
   5 C5             0.0069     5.5653    -0.6265 C.ar    
   6 Cl6           -1.4557     6.4233    -0.9986 Cl      
   7 N7             1.2474     2.1034    -0.4897 N.pl3   
   8 C8             2.4661     1.4274    -0.3697 C.2     
   9 C9             2.6330     0.0330    -0.3143 C.2     
  10 N10            3.6516     1.9855    -0.2951 N.2     
  11 N11            4.6083     0.9682    -0.1849 N.pl3   
  12 C12            3.9553    -0.2233    -0.1992 C.2     
  13 C13            5.9911     1.1470    -0.0822 C.ar    
  14 C14            6.8737     0.2700    -0.7094 C.ar    
  15 C15            6.5222     2.2106     0.6453 C.ar    
  16 C16            7.8924     2.3525     0.7220 C.ar    
  17 N17            8.6959     1.4976     0.1179 N.ar    
  18 C18            8.2317     0.4815    -0.5841 C.ar    
  19 C19            8.4789     3.4987     1.5052 C.3     
  20 H20            8.9232    -0.1957    -1.0632 H       
  21 C21            4.5912    -1.5862    -0.1034 C.3     
  22 C22            4.7077    -2.1941    -1.5027 C.3     
  23 C23            0.0368     4.1838    -0.7026 C.ar    
  24 C24            5.2674    -3.5895    -1.3991 C.2     
  25 N25            5.4586    -4.3232    -2.5133 N.am    
  26 O26            5.5457    -4.0522    -0.3131 O.2     
  27 C27            6.0027    -5.6797    -2.4126 C.3     
  28 C28            5.1224    -3.7643    -3.8251 C.3     
  29 F29           -1.0699     3.5022    -1.0711 F       
  30 H30            3.2586     3.6751     0.2009 H       
  31 H31            3.1910     6.1307     0.3417 H       
  32 H32            1.1147     7.3406    -0.1863 H       
  33 H33            0.4275     1.6042    -0.6285 H       
  34 H34            1.8443    -0.7036    -0.3557 H       
  35 H35            6.5003    -0.5639    -1.2852 H       
  36 H36            5.8703     2.9141     1.1418 H       
  37 H37            8.6335     3.1907     2.5393 H       
  38 H38            9.4335     3.7882     1.0658 H       
  39 H39            7.7940     4.3462     1.4770 H       
  40 H40            5.5843    -1.4937     0.3363 H       
  41 H41            3.9752    -2.2313     0.5229 H       
  42 H42            3.7217    -2.2315    -1.9657 H       
  43 H43            5.3719    -1.5805    -2.1113 H       
  44 H44            5.1849    -6.3921    -2.3037 H       
  45 H45            6.5690    -5.9119    -3.3146 H       
  46 H46            6.6590    -5.7445    -1.5448 H       
  47 H47            4.7345    -2.7533    -3.7007 H       
  48 H48            6.0164    -3.7364    -4.4481 H       
  49 H49            4.3662    -4.3875    -4.3026 H       
@<TRIPOS>BOND
   1    1    2 ar
   2    1    7 1
   3    1   23 ar
   4    2    3 ar
   5    2   30 1
   6    3    4 ar
   7    3   31 1
   8    4    5 ar
   9    4   32 1
  10    5   23 ar
  11    5    6 1
  12    7    8 1
  13    7   33 1
  14    8    9 1
  15    8   10 2
  16    9   12 2
  17    9   34 1
  18   10   11 1
  19   11   12 1
  20   11   13 1
  21   12   21 1
  22   13   14 ar
  23   13   15 ar
  24   14   18 ar
  25   14   35 1
  26   15   16 ar
  27   15   36 1
  28   16   17 ar
  29   16   19 1
  30   17   18 ar
  31   18   20 1
  32   19   37 1
  33   19   38 1
  34   19   39 1
  35   21   22 1
  36   21   40 1
  37   21   41 1
  38   22   24 1
  39   22   42 1
  40   22   43 1
  41   23   29 1
  42   24   25 am
  43   24   26 2
  44   25   27 1
  45   25   28 1
  46   27   44 1
  47   27   45 1
  48   27   46 1
  49   28   47 1
  50   28   48 1
  51   28   49 1

#	End of record

