#	Name: ASD02160009
#	Creating user name:	WinNT
#	Creation time:	15. 06. 2019 20:18

#	Modifying user name:	WinNT
#	Modification time:	15. 06. 2019 20:18

#	Program:	/corina/corina34_cracker 3.40 0067  02.08.2006

@<TRIPOS>MOLECULE
ASD02160009
  58   60    0    0    0
SMALL
NO_CHARGES


@<TRIPOS>ATOM
   1 C1             0.0359     1.5767    -0.0086 C.3     
   2 C2            -0.0417     0.0764     0.0062 C.2     
   3 C3             1.0212    -0.6835    -0.3098 C.2     
   4 N4             2.2163    -0.1104    -0.6493 N.pl3   
   5 C5             2.4688     1.1971    -0.3349 C.2     
   6 C6             1.4666     2.0354    -0.0201 C.2     
   7 C7             0.8949    -2.1851    -0.2894 C.3     
   8 C8             3.8882     1.7032    -0.3409 C.3     
   9 C9             1.7652     3.3781     0.3079 C.2     
  10 O10            2.9195     3.7634     0.3027 O.2     
  11 O11            0.7702     4.2322     0.6267 O.3     
  12 C12            1.1444     5.5735     0.9474 C.3     
  13 C13           -0.0894     6.3747     1.2744 C.ar    
  14 C14           -0.6620     2.0976    -1.2386 C.ar    
  15 C15           -1.2590    -0.5498     0.3607 C.2     
  16 O16           -2.0760    -1.0294    -0.6004 O.3     
  17 O17           -1.5698    -0.6563     1.5324 O.2     
  18 C18           -0.7723     7.0463     0.2778 C.ar    
  19 C19           -0.5570     6.4429     2.5776 C.ar    
  20 C20           -1.6959     7.1921     2.8318 C.ar    
  21 C21           -2.3225     7.8411     1.7851 C.ar    
  22 N22           -1.8523     7.7496     0.5563 N.ar    
  23 C23           -1.9420     3.0535    -3.4950 C.ar    
  24 C24           -0.8639     2.1973    -3.6222 C.ar    
  25 C25           -0.2238     1.7197    -2.4942 C.ar    
  26 C26           -1.7436     2.9485    -1.1112 C.ar    
  27 C27           -2.3839     3.4264    -2.2396 C.ar    
  28 C28           -3.2893    -1.6498    -0.1703 C.3     
  29 N29           -3.5381     4.3430    -2.1033 N.pl3   
  30 O30           -4.0984     4.7687    -3.0974 O.2     
  31 O31           -3.9275     4.6716    -0.9970 O.2     
  32 C32           -4.3961    -0.5973    -0.0799 C.3     
  33 C33           -3.6938    -2.7301    -1.1754 C.3     
  34 H34           -0.4601     1.9706     0.8785 H       
  35 H35            2.8877    -0.6335    -1.1146 H       
  36 H36            0.4901    -2.5286    -1.2413 H       
  37 H37            1.8771    -2.6301    -0.1305 H       
  38 H38            0.2262    -2.4825     0.5184 H       
  39 H39            4.5621     0.8919    -0.6162 H       
  40 H40            3.9817     2.5142    -1.0633 H       
  41 H41            4.1474     2.0697     0.6523 H       
  42 H42            1.8130     5.5683     1.8083 H       
  43 H43            1.6536     6.0224     0.0946 H       
  44 H44           -0.4170     6.9945    -0.7408 H       
  45 H45           -0.0467     5.9246     3.3759 H       
  46 H46           -2.0885     7.2670     3.8351 H       
  47 H47           -3.2100     8.4266     1.9747 H       
  48 H48           -2.4422     3.4267    -4.3764 H       
  49 H49           -0.5186     1.9059    -4.6032 H       
  50 H50            0.6188     1.0515    -2.5937 H       
  51 H51           -2.0889     3.2399    -0.1302 H       
  52 H52           -3.1382    -2.1033     0.8093 H       
  53 H53           -5.3216    -1.0705     0.2482 H       
  54 H54           -4.1079     0.1723     0.6362 H       
  55 H55           -4.5473    -0.1439    -1.0595 H       
  56 H56           -2.9054    -3.4800    -1.2399 H       
  57 H57           -4.6193    -3.2034    -0.8474 H       
  58 H58           -3.8450    -2.2767    -2.1550 H       
@<TRIPOS>BOND
   1    1    2 1
   2    1    6 1
   3    1   14 1
   4    1   34 1
   5    2    3 2
   6    2   15 1
   7    3    4 1
   8    3    7 1
   9    4    5 1
  10    4   35 1
  11    5    6 2
  12    5    8 1
  13    6    9 1
  14    7   36 1
  15    7   37 1
  16    7   38 1
  17    8   39 1
  18    8   40 1
  19    8   41 1
  20    9   10 2
  21    9   11 1
  22   11   12 1
  23   12   13 1
  24   12   42 1
  25   12   43 1
  26   13   19 ar
  27   13   18 ar
  28   14   26 ar
  29   14   25 ar
  30   15   16 1
  31   15   17 2
  32   16   28 1
  33   18   22 ar
  34   18   44 1
  35   19   20 ar
  36   19   45 1
  37   20   21 ar
  38   20   46 1
  39   21   22 ar
  40   21   47 1
  41   23   24 ar
  42   23   27 ar
  43   23   48 1
  44   24   25 ar
  45   24   49 1
  46   25   50 1
  47   26   27 ar
  48   26   51 1
  49   27   29 1
  50   28   32 1
  51   28   33 1
  52   28   52 1
  53   29   30 2
  54   29   31 2
  55   32   53 1
  56   32   54 1
  57   32   55 1
  58   33   56 1
  59   33   57 1
  60   33   58 1

#	End of record

