#	Name: ASD01916524
#	Creating user name:	WinNT
#	Creation time:	15. 06. 2019 20:07

#	Modifying user name:	WinNT
#	Modification time:	15. 06. 2019 20:07

#	Program:	/corina/corina34_cracker 3.40 0067  02.08.2006

@<TRIPOS>MOLECULE
ASD01916524
  45   48    0    0    0
SMALL
NO_CHARGES


@<TRIPOS>ATOM
   1 C1            -0.0171     1.4099     0.0098 C.ar    
   2 C2             0.0021    -0.0041     0.0020 C.ar    
   3 C3            -1.1911    -0.7256     0.0414 C.ar    
   4 C4            -2.3839    -0.0645     0.0741 C.ar    
   5 C5            -2.4218     1.3383     0.0659 C.ar    
   6 C6            -1.2407     2.0764     0.0357 C.ar    
   7 N7             1.1598     2.0753     0.0021 N.2     
   8 C8             2.3198     1.4679    -0.0397 C.2     
   9 N9             2.4202     0.1198    -0.1575 N.am    
  10 C10            1.3106    -0.6628    -0.0625 C.2     
  11 C11           -3.6832     2.0157     0.0891 C.1     
  12 C12           -4.7174     2.5711     0.1081 C.1     
  13 C13           -5.9788     3.2485     0.1314 C.ar    
  14 N14           -6.0106     4.5790     0.1234 N.ar    
  15 C15           -7.1462     5.2411     0.1440 C.ar    
  16 C16           -8.3665     4.5598     0.1751 C.ar    
  17 C17           -8.3657     3.1569     0.1842 C.ar    
  18 C18           -7.1626     2.5035     0.1564 C.ar    
  19 O19            1.4019    -1.8764    -0.0321 O.2     
  20 C20            3.5356     2.3454     0.1020 C.3     
  21 C21            4.7921     1.6930    -0.4308 C.3     
  22 C22            4.8966     0.2366    -0.0270 C.3     
  23 C23            3.6798    -0.5615    -0.4368 C.3     
  24 C24            6.1350    -0.3733    -0.6869 C.3     
  25 C25            5.0557     0.1534     1.4924 C.3     
  26 C26           -9.6013     5.2845     0.1979 C.1     
  27 N27          -10.5810     5.8594     0.2160 N.1     
  28 H28           -1.1706    -1.8054     0.0456 H       
  29 H29           -3.3064    -0.6251     0.1063 H       
  30 H30           -1.2731     3.1559     0.0320 H       
  31 H31           -7.1362     6.3210     0.1371 H       
  32 H32           -9.2934     2.6046     0.2085 H       
  33 H33           -7.1279     1.4241     0.1624 H       
  34 H34            3.3641     3.2747    -0.4412 H       
  35 H35            3.6803     2.5785     1.1569 H       
  36 H36            4.7909     1.7592    -1.5188 H       
  37 H37            5.6595     2.2297    -0.0465 H       
  38 H38            3.6890    -1.5119     0.0969 H       
  39 H39            3.7382    -0.7637    -1.5063 H       
  40 H40            7.0241     0.1648    -0.3582 H       
  41 H41            6.2190    -1.4221    -0.4022 H       
  42 H42            6.0441    -0.2971    -1.7704 H       
  43 H43            4.1898     0.6078     1.9738 H       
  44 H44            5.1318    -0.8915     1.7931 H       
  45 H45            5.9589     0.6846     1.7928 H       
@<TRIPOS>BOND
   1    1    2 ar
   2    1    7 1
   3    1    6 ar
   4    2    3 ar
   5    2   10 1
   6    3    4 ar
   7    3   28 1
   8    4    5 ar
   9    4   29 1
  10    5    6 ar
  11    5   11 1
  12    6   30 1
  13    7    8 2
  14    8    9 1
  15    8   20 1
  16    9   10 am
  17    9   23 1
  18   10   19 2
  19   11   12 3
  20   12   13 1
  21   13   14 ar
  22   13   18 ar
  23   14   15 ar
  24   15   16 ar
  25   15   31 1
  26   16   26 1
  27   16   17 ar
  28   17   18 ar
  29   17   32 1
  30   18   33 1
  31   20   21 1
  32   20   34 1
  33   20   35 1
  34   21   22 1
  35   21   36 1
  36   21   37 1
  37   22   23 1
  38   22   24 1
  39   22   25 1
  40   23   38 1
  41   23   39 1
  42   24   40 1
  43   24   41 1
  44   24   42 1
  45   25   43 1
  46   25   44 1
  47   25   45 1
  48   26   27 3

#	End of record

