#	Name: ASD03080064
#	Creating user name:	WinNT
#	Creation time:	15. 06. 2019 20:26

#	Modifying user name:	WinNT
#	Modification time:	15. 06. 2019 20:26

#	Program:	/corina/corina34_cracker 3.40 0067  02.08.2006

@<TRIPOS>MOLECULE
ASD03080064
  26   28    0    0    0
SMALL
NO_CHARGES


@<TRIPOS>ATOM
   1 O1            -0.0144     1.2085     0.0087 O.3     
   2 N2             0.0021    -0.0041     0.0020 N.2     
   3 C3             1.2349    -0.4420    -0.0121 C.2     
   4 N4             2.0455     0.6368    -0.0141 N.2     
   5 C5             1.2410     1.6828    -0.0008 C.2     
   6 C6             3.0160    -2.1949    -0.0380 C.ar    
   7 C7             1.6630    -1.8633    -0.0238 C.ar    
   8 C8             0.7155    -2.8900    -0.0203 C.ar    
   9 C9             1.1658    -4.1993    -0.0312 C.ar    
  10 C10            2.5262    -4.4464    -0.0450 C.ar    
  11 N11            3.3972    -3.4557    -0.0476 N.ar    
  12 C12            1.6452     3.1049     0.0021 C.ar    
  13 C13            0.6759     4.1090     0.0162 C.ar    
  14 C14            1.0601     5.4347     0.0188 C.ar    
  15 C15            2.4038     5.7688     0.0068 C.ar    
  16 C16            3.3688     4.7779    -0.0077 C.ar    
  17 C17            2.9977     3.4489    -0.0036 C.ar    
  18 Br18          -0.2510     6.7973     0.0379 Br      
  19 H19            3.7590    -1.4112    -0.0454 H       
  20 H20           -0.3414    -2.6681    -0.0091 H       
  21 H21            0.4622    -5.0186    -0.0286 H       
  22 H22            2.8811    -5.4664    -0.0535 H       
  23 H23           -0.3724     3.8492     0.0248 H       
  24 H24            2.6997     6.8075     0.0085 H       
  25 H25            4.4152     5.0451    -0.0177 H       
  26 H26            3.7524     2.6764    -0.0101 H       
@<TRIPOS>BOND
   1    1    2 1
   2    1    5 1
   3    2    3 2
   4    3    4 1
   5    3    7 1
   6    4    5 2
   7    5   12 1
   8    6    7 ar
   9    6   11 ar
  10    6   19 1
  11    7    8 ar
  12    8    9 ar
  13    8   20 1
  14    9   10 ar
  15    9   21 1
  16   10   11 ar
  17   10   22 1
  18   12   13 ar
  19   12   17 ar
  20   13   14 ar
  21   13   23 1
  22   14   15 ar
  23   14   18 1
  24   15   16 ar
  25   15   24 1
  26   16   17 ar
  27   16   25 1
  28   17   26 1

#	End of record

