#	Name: ASD01850071
#	Creating user name:	WinNT
#	Creation time:	15. 06. 2019 19:38

#	Modifying user name:	WinNT
#	Modification time:	15. 06. 2019 19:38

#	Program:	/corina/corina34_cracker 3.40 0067  02.08.2006

@<TRIPOS>MOLECULE
ASD01850071
  59   62    0    0    0
SMALL
NO_CHARGES


@<TRIPOS>ATOM
   1 C1            -7.5852     4.7972    -0.6416 C.ar    
   2 C2            -8.1071     5.5213    -1.6969 C.ar    
   3 C3            -7.3581     5.7092    -2.8437 C.ar    
   4 C4            -6.0872     5.1735    -2.9347 C.ar    
   5 C5            -5.5648     4.4500    -1.8787 C.ar    
   6 C6            -6.3119     4.2658    -0.7305 C.ar    
   7 C7            -2.9929     4.8016     0.0603 C.3     
   8 N8            -3.2135     4.7956    -1.3880 N.am    
   9 C9            -3.8557     5.8893     0.7031 C.3     
  10 C10           -2.5278     5.6458    -2.1776 C.2     
  11 C11           -2.8364     5.7211    -3.6507 C.3     
  12 O12           -1.6623     6.3502    -1.7026 O.2     
  13 C13           -2.3115     7.0434    -4.2147 C.3     
  14 C14           -2.1619     4.5528    -4.3734 C.3     
  15 C15           -2.5062     4.6129    -5.8649 C.3     
  16 N16           -2.1362     5.9372    -6.3826 N.am    
  17 C17           -2.6575     7.1317    -5.7044 C.3     
  18 S18           -1.1499     6.0806    -7.7051 S.o2    
  19 C19           -2.1874     6.1087    -9.1290 C.ar    
  20 C20           -2.6565     7.3004    -9.6000 C.ar    
  21 C21           -3.4801     7.3215   -10.7313 C.ar    
  22 C22           -3.8158     6.1129   -11.3712 C.ar    
  23 C23           -3.3217     4.9120   -10.8677 C.ar    
  24 C24           -2.5155     4.9175    -9.7650 C.ar    
  25 C25           -4.1406     8.3821   -11.4852 C.2     
  26 N26           -4.7932     7.8259   -12.4657 N.2     
  27 N27           -4.6205     6.4383   -12.4317 N.pl3   
  28 O28           -0.5497     7.3659    -7.6205 O.2     
  29 O29           -0.3998     4.8760    -7.7789 O.2     
  30 C30           -4.1794     3.8655    -1.9780 C.3     
  31 C31           -8.4016     4.5923     0.6084 C.3     
  32 F32           -9.6419     5.2232     0.4639 F       
  33 F33           -8.5966     3.2230     0.8188 F       
  34 F34           -7.7242     5.1405     1.7029 F       
  35 H35           -9.1001     5.9399    -1.6259 H       
  36 H36           -7.7661     6.2744    -3.6686 H       
  37 H37           -5.5024     5.3197    -3.8308 H       
  38 H38           -5.9038     3.7007     0.0944 H       
  39 H39           -3.2653     3.8303     0.4733 H       
  40 H40           -1.9416     5.0023     0.2669 H       
  41 H41           -3.7596     5.8358     1.7875 H       
  42 H42           -3.5240     6.8681     0.3568 H       
  43 H43           -4.8983     5.7389     0.4229 H       
  44 H44           -3.9148     5.6656    -3.7991 H       
  45 H45           -2.7749     7.8749    -3.6837 H       
  46 H46           -1.2297     7.0886    -4.0892 H       
  47 H47           -1.0815     4.6214    -4.2463 H       
  48 H48           -2.5188     3.6115    -3.9553 H       
  49 H49           -1.9499     3.8430    -6.3996 H       
  50 H50           -3.5760     4.4537    -5.9997 H       
  51 H51           -3.7397     7.1779    -5.8261 H       
  52 H52           -2.2010     8.0238    -6.1333 H       
  53 H53           -2.3939     8.2223    -9.1023 H       
  54 H54           -3.5727     3.9788   -11.3499 H       
  55 H55           -2.1344     3.9839    -9.3783 H       
  56 H56           -4.0963     9.4392   -11.2689 H       
  57 H57           -5.0079     5.8075   -13.0584 H       
  58 H58           -4.1456     2.9175    -1.4411 H       
  59 H59           -3.9297     3.6986    -3.0259 H       
@<TRIPOS>BOND
   1    1   31 1
   2    1    2 ar
   3    1    6 ar
   4    2    3 ar
   5    2   35 1
   6    3    4 ar
   7    3   36 1
   8    4    5 ar
   9    4   37 1
  10    5    6 ar
  11    5   30 1
  12    6   38 1
  13    7    8 1
  14    7    9 1
  15    7   39 1
  16    7   40 1
  17    8   10 am
  18    8   30 1
  19    9   41 1
  20    9   42 1
  21    9   43 1
  22   10   11 1
  23   10   12 2
  24   11   13 1
  25   11   14 1
  26   11   44 1
  27   13   17 1
  28   13   45 1
  29   13   46 1
  30   14   15 1
  31   14   47 1
  32   14   48 1
  33   15   16 1
  34   15   49 1
  35   15   50 1
  36   16   17 1
  37   16   18 am
  38   17   51 1
  39   17   52 1
  40   18   19 1
  41   18   28 2
  42   18   29 2
  43   19   20 ar
  44   19   24 ar
  45   20   21 ar
  46   20   53 1
  47   21   22 ar
  48   21   25 1
  49   22   23 ar
  50   22   27 1
  51   23   24 ar
  52   23   54 1
  53   24   55 1
  54   25   26 2
  55   25   56 1
  56   26   27 1
  57   27   57 1
  58   30   58 1
  59   30   59 1
  60   31   32 1
  61   31   33 1
  62   31   34 1

#	End of record

