#	Name: ASD01900726
#	Creating user name:	WinNT
#	Creation time:	15. 06. 2019 19:52

#	Modifying user name:	WinNT
#	Modification time:	15. 06. 2019 19:52

#	Program:	/corina/corina34_cracker 3.40 0067  02.08.2006

@<TRIPOS>MOLECULE
ASD01900726
  52   56    0    0    0
SMALL
NO_CHARGES


@<TRIPOS>ATOM
   1 C1             0.0890     1.7174    -0.0669 C.ar    
   2 C2             0.3300     0.4364     0.4377 C.ar    
   3 C3            -0.7148    -0.4260     0.6858 C.ar    
   4 C4            -2.0235    -0.0295     0.4355 C.ar    
   5 C5            -2.2670     1.2540    -0.0753 C.ar    
   6 O6            -3.0518    -0.8676     0.6881 O.3     
   7 C7            -4.2820    -0.6477     0.1923 C.2     
   8 C8            -4.6635     0.5495    -0.3207 C.2     
   9 C9            -3.6755     1.6423    -0.3454 C.2     
  10 C10           -5.2557    -1.7518     0.2059 C.2     
  11 N11           -6.5043    -1.5617    -0.2869 N.2     
  12 C12           -7.3927    -2.5088    -0.2941 C.2     
  13 N13           -7.1138    -3.7543     0.1977 N.pl3   
  14 C14           -5.8572    -4.0150     0.7156 C.2     
  15 C15           -4.8955    -2.9875     0.7169 C.2     
  16 C16           -1.2195     2.1284    -0.3186 C.ar    
  17 C17           -7.8588    -4.8897     0.2999 C.2     
  18 C18           -7.1061    -5.8625     0.8692 C.2     
  19 C19           -5.8415    -5.3309     1.1386 C.2     
  20 C20            1.2173     2.6357    -0.3273 C.2     
  21 C21            2.3507     2.1672    -0.8311 C.2     
  22 C22            2.4254     0.7447    -1.3231 C.3     
  23 N23            2.9240     0.7301    -2.7048 N.3     
  24 C24            3.2353    -0.6398    -3.1381 C.3     
  25 C25            4.0986     1.6021    -2.8504 C.3     
  26 C26            4.5479     1.6038    -4.3139 C.3     
  27 O27            4.8161     0.2610    -4.7266 O.3     
  28 C28            3.6933    -0.6156    -4.5988 C.3     
  29 N29           -4.0189     2.8841    -0.5917 N.2     
  30 O30           -3.0633     3.9214    -0.4647 O.3     
  31 H31            1.3438     0.1203     0.6344 H       
  32 H32           -0.5167    -1.4135     1.0757 H       
  33 H33           -5.6638     0.6972    -0.7003 H       
  34 H34           -8.3744    -2.3084    -0.6973 H       
  35 H35           -3.9049    -3.1561     1.1129 H       
  36 H36           -1.4143     3.1165    -0.7087 H       
  37 H37           -8.8845    -4.9975    -0.0208 H       
  38 H38           -7.4272    -6.8723     1.0781 H       
  39 H39           -5.0095    -5.8502     1.5909 H       
  40 H40            1.1186     3.6884    -0.1071 H       
  41 H41            3.2203     2.8050    -0.8888 H       
  42 H42            3.1025     0.1752    -0.6865 H       
  43 H43            1.4325     0.2963    -1.2903 H       
  44 H44            4.0307    -1.0471    -2.5139 H       
  45 H45            2.3450    -1.2619    -3.0461 H       
  46 H46            3.8384     2.6166    -2.5484 H       
  47 H47            4.9078     1.2307    -2.2216 H       
  48 H48            3.7587     2.0252    -4.9365 H       
  49 H49            5.4524     2.2035    -4.4163 H       
  50 H50            3.9797    -1.6211    -4.9071 H       
  51 H51            2.8792    -0.2588    -5.2296 H       
  52 H52           -3.4091     4.8016    -0.6666 H       
@<TRIPOS>BOND
   1    1    2 ar
   2    1   20 1
   3    1   16 ar
   4    2    3 ar
   5    2   31 1
   6    3    4 ar
   7    3   32 1
   8    4    5 ar
   9    4    6 1
  10    5   16 ar
  11    5    9 1
  12    6    7 1
  13    7    8 2
  14    7   10 1
  15    8    9 1
  16    8   33 1
  17    9   29 2
  18   10   11 1
  19   10   15 2
  20   11   12 2
  21   12   13 1
  22   12   34 1
  23   13   14 1
  24   13   17 1
  25   14   15 1
  26   14   19 2
  27   15   35 1
  28   16   36 1
  29   17   18 2
  30   17   37 1
  31   18   19 1
  32   18   38 1
  33   19   39 1
  34   20   21 2
  35   20   40 1
  36   21   22 1
  37   21   41 1
  38   22   23 1
  39   22   42 1
  40   22   43 1
  41   23   24 1
  42   23   25 1
  43   24   28 1
  44   24   44 1
  45   24   45 1
  46   25   26 1
  47   25   46 1
  48   25   47 1
  49   26   27 1
  50   26   48 1
  51   26   49 1
  52   27   28 1
  53   28   50 1
  54   28   51 1
  55   29   30 1
  56   30   52 1

#	End of record

