#	Name: ASD01883296
#	Creating user name:	WinNT
#	Creation time:	15. 06. 2019 19:46

#	Modifying user name:	WinNT
#	Modification time:	15. 06. 2019 19:46

#	Program:	/corina/corina34_cracker 3.40 0067  02.08.2006

@<TRIPOS>MOLECULE
ASD01883296
  44   46    0    0    0
SMALL
NO_CHARGES


@<TRIPOS>ATOM
   1 N1            -0.0162     1.3417     0.0094 N.am    
   2 C2             0.0021    -0.0041     0.0020 C.2     
   3 C3            -1.2161    -0.7275     0.0098 C.2     
   4 C4            -2.4264    -0.0110     0.0252 C.2     
   5 C5            -2.3787     1.3973     0.0323 C.2     
   6 C6            -1.1851     2.0327     0.0299 C.2     
   7 O7             1.0657    -0.6000    -0.0117 O.2     
   8 C8            -1.2152    -2.1594     0.0016 C.1     
   9 N9            -1.2145    -3.2954    -0.0049 N.1     
  10 C10            1.2513     2.0763     0.0013 C.3     
  11 C11            1.6788     2.3398    -1.4440 C.3     
  12 C12            3.0025     3.1070    -1.4525 C.3     
  13 C13            4.1050     2.2284    -0.8581 C.3     
  14 C14            3.3670     3.4792    -2.8911 C.3     
  15 C15           -3.7217    -0.7207     0.0332 C.ar    
  16 C16           -4.5703    -0.6141     1.1391 C.ar    
  17 C17           -5.7681    -1.2704     1.1466 C.ar    
  18 C18           -6.1458    -2.0485     0.0482 C.ar    
  19 C19           -5.2973    -2.1547    -1.0580 C.ar    
  20 C20           -4.1017    -1.4944    -1.0674 C.ar    
  21 C21           -7.4399    -2.7581     0.0564 C.2     
  22 C22           -7.9385    -3.5461    -0.9328 C.2     
  23 N23           -9.1344    -3.9950    -0.5263 N.2     
  24 C24           -9.3843    -3.5171     0.6611 C.2     
  25 O25           -8.3547    -2.7541     1.0513 O.3     
  26 H26           -3.2950     1.9689     0.0441 H       
  27 H27           -1.1609     3.1124     0.0354 H       
  28 H28            1.1243     3.0257     0.5214 H       
  29 H29            2.0168     1.4857     0.5046 H       
  30 H30            1.8057     1.3904    -1.9642 H       
  31 H31            0.9133     2.9303    -1.9474 H       
  32 H32            2.9004     4.0143    -0.8572 H       
  33 H33            5.0481     2.7750    -0.8642 H       
  34 H34            3.8454     1.9632     0.1668 H       
  35 H35            4.2071     1.3210    -1.4534 H       
  36 H36            2.5815     4.1052    -3.3146 H       
  37 H37            4.3100     4.0258    -2.8972 H       
  38 H38            3.4691     2.5719    -3.4864 H       
  39 H39           -4.2785    -0.0131     1.9877 H       
  40 H40           -6.4233    -1.1887     2.0013 H       
  41 H41           -5.5891    -2.7557    -1.9066 H       
  42 H42           -3.4465    -1.5762    -1.9220 H       
  43 H43           -7.4590    -3.7693    -1.8744 H       
  44 H44          -10.2762    -3.7094     1.2390 H       
@<TRIPOS>BOND
   1    1    2 am
   2    1   10 1
   3    1    6 1
   4    2    3 1
   5    2    7 2
   6    3    4 2
   7    3    8 1
   8    4    5 1
   9    4   15 1
  10    5    6 2
  11    5   26 1
  12    6   27 1
  13    8    9 3
  14   10   11 1
  15   10   28 1
  16   10   29 1
  17   11   12 1
  18   11   30 1
  19   11   31 1
  20   12   13 1
  21   12   14 1
  22   12   32 1
  23   13   33 1
  24   13   34 1
  25   13   35 1
  26   14   36 1
  27   14   37 1
  28   14   38 1
  29   15   16 ar
  30   15   20 ar
  31   16   17 ar
  32   16   39 1
  33   17   18 ar
  34   17   40 1
  35   18   19 ar
  36   18   21 1
  37   19   20 ar
  38   19   41 1
  39   20   42 1
  40   21   22 2
  41   21   25 1
  42   22   23 1
  43   22   43 1
  44   23   24 2
  45   24   25 1
  46   24   44 1

#	End of record

