#	Name: ASD03092883
#	Creating user name:	WinNT
#	Creation time:	15. 06. 2019 20:33

#	Modifying user name:	WinNT
#	Modification time:	15. 06. 2019 20:33

#	Program:	/corina/corina34_cracker 3.40 0067  02.08.2006

@<TRIPOS>MOLECULE
ASD03092883
  49   51    0    0    0
SMALL
NO_CHARGES


@<TRIPOS>ATOM
   1 C1            -0.0187     1.5258     0.0104 C.3     
   2 C2             0.0021    -0.0041     0.0020 C.3     
   3 C3            -1.2267    -0.6840     0.6092 C.3     
   4 C4             0.6786    -0.6949    -1.1837 C.3     
   5 H5             1.1089    -0.0595    -1.9578 H       
   6 C6             0.0742    -2.0128    -1.6723 C.3     
   7 N7             0.7792    -2.4562    -2.8776 N.pl3   
   8 C8             0.4014    -3.6470    -3.5120 C.ar    
   9 C9            -0.6431    -4.4038    -3.0034 C.ar    
  10 C10           -1.0145    -5.5791    -3.6303 C.ar    
  11 C11           -0.3458    -6.0024    -4.7657 C.ar    
  12 F12           -0.7121    -7.1512    -5.3749 F       
  13 C13            0.6977    -5.2502    -5.2790 C.ar    
  14 C14            1.0710    -4.0699    -4.6583 C.ar    
  15 O15            2.0921    -3.3274    -5.1641 O.3     
  16 C16            2.7327    -3.8222    -6.3417 C.3     
  17 F17            3.2785    -5.0837    -6.0806 F       
  18 F18            1.7949    -3.9246    -7.3747 F       
  19 C19            1.3553    -0.6933     0.1885 C.3     
  20 H20            1.3701    -1.6313     0.7435 H       
  21 C21            2.5657     0.1867     0.3665 C.ar    
  22 C22            2.9163     1.0878    -0.6214 C.ar    
  23 C23            4.0266     1.8950    -0.4582 C.ar    
  24 C24            4.7859     1.8014     0.6931 C.ar    
  25 C25            4.4347     0.9009     1.6814 C.ar    
  26 C26            3.3220     0.0968     1.5201 C.ar    
  27 S27            6.2018     2.8294     0.9007 S.o2    
  28 N28            5.6936     4.2196     1.6432 N.am    
  29 O29            7.0476     2.1648     1.8292 O.2     
  30 O30            6.6219     3.2022    -0.4046 O.2     
  31 H31            1.0039     1.9031     0.0027 H       
  32 H32           -0.5459     1.8868    -0.8726 H       
  33 H33           -0.5289     1.8773     0.9072 H       
  34 H34           -2.0035    -0.7757    -0.1499 H       
  35 H35           -0.9523    -1.6754     0.9699 H       
  36 H36           -1.5997    -0.0854     1.4403 H       
  37 H37            0.1744    -2.7692    -0.8938 H       
  38 H38           -0.9810    -1.8655    -1.9021 H       
  39 H39            1.5074    -1.9254    -3.2364 H       
  40 H40           -1.1663    -4.0756    -2.1175 H       
  41 H41           -1.8278    -6.1682    -3.2328 H       
  42 H42            1.2178    -5.5821    -6.1653 H       
  43 H43            3.5269    -3.1371    -6.6385 H       
  44 H44            2.3231     1.1609    -1.5209 H       
  45 H45            4.3010     2.5985    -1.2303 H       
  46 H46            5.0282     0.8275     2.5808 H       
  47 H47            3.0454    -0.6041     2.2939 H       
  48 H48            4.7581     4.3322     1.8738 H       
  49 H49            6.3313     4.9214     1.8475 H       
@<TRIPOS>BOND
   1    1    2 1
   2    1   31 1
   3    1   32 1
   4    1   33 1
   5    2   19 1
   6    2    3 1
   7    2    4 1
   8    3   34 1
   9    3   35 1
  10    3   36 1
  11    4    5 1
  12    4    6 1
  13    4   19 1
  14    6    7 1
  15    6   37 1
  16    6   38 1
  17    7    8 1
  18    7   39 1
  19    8   14 ar
  20    8    9 ar
  21    9   10 ar
  22    9   40 1
  23   10   11 ar
  24   10   41 1
  25   11   12 1
  26   11   13 ar
  27   13   14 ar
  28   13   42 1
  29   14   15 1
  30   15   16 1
  31   16   17 1
  32   16   18 1
  33   16   43 1
  34   19   20 1
  35   19   21 1
  36   21   26 ar
  37   21   22 ar
  38   22   23 ar
  39   22   44 1
  40   23   24 ar
  41   23   45 1
  42   24   25 ar
  43   24   27 1
  44   25   26 ar
  45   25   46 1
  46   26   47 1
  47   27   28 am
  48   27   29 2
  49   27   30 2
  50   28   48 1
  51   28   49 1

#	End of record

