#	Name: ASD02039413
#	Creating user name:	WinNT
#	Creation time:	15. 06. 2019 20:18

#	Modifying user name:	WinNT
#	Modification time:	15. 06. 2019 20:18

#	Program:	/corina/corina34_cracker 3.40 0067  02.08.2006

@<TRIPOS>MOLECULE
ASD02039413
  51   53    0    0    0
SMALL
NO_CHARGES


@<TRIPOS>ATOM
   1 C1            -0.1344     1.5597    -0.1874 C.ar    
   2 C2            -0.1557     0.1783    -0.0590 C.ar    
   3 C3             1.1631     2.3214    -0.1017 C.3     
   4 N4             1.8166     2.3220    -1.4129 N.am    
   5 C5             1.4078     3.2890    -2.4346 C.3     
   6 C6             2.7938     1.4328    -1.6792 C.2     
   7 C7             3.1435     0.4030    -0.6854 C.2     
   8 C8             4.1490    -0.5127    -0.7927 C.2     
   9 N9             2.5276     0.1962     0.5067 N.2     
  10 C10            3.1090    -0.7976     1.1140 C.2     
  11 N11            4.1204    -1.2616     0.3348 N.pl3   
  12 O12            3.3870     1.4806    -2.7399 O.2     
  13 C13           -1.3623    -0.4920    -0.1423 C.ar    
  14 C14           -2.5091     1.4826    -0.4808 C.ar    
  15 C15           -1.3309     2.2219    -0.4018 C.ar    
  16 C16           -3.7993     2.1772    -0.7101 C.ar    
  17 C17           -3.8206     3.5503    -0.9495 C.ar    
  18 C18           -4.9924     1.4579    -0.6923 C.ar    
  19 C19           -6.1939     2.1110    -0.9068 C.ar    
  20 C20           -6.2081     3.4814    -1.1393 C.ar    
  21 C21           -5.0221     4.1952    -1.1622 C.ar    
  22 C22            5.0185    -2.3734     0.6564 C.3     
  23 C23            2.5764     4.2260    -2.7466 C.3     
  24 N24           -2.4877     0.1632    -0.3414 N.ar    
  25 F25           -7.3816     4.1174    -1.3485 F       
  26 C26            0.9976     2.5443    -3.7066 C.3     
  27 O27           -7.3600     1.4121    -0.8905 O.3     
  28 C28           -7.2708     0.0070    -0.6461 C.3     
  29 F29           -6.6836    -0.2125     0.6045 F       
  30 F30           -8.5533    -0.5517    -0.6636 F       
  31 F31           -6.4883    -0.5905    -1.6401 F       
  32 H32            0.7614    -0.3683     0.1041 H       
  33 H33            0.9621     3.3480     0.2045 H       
  34 H34            1.8163     1.8454     0.6296 H       
  35 H35            0.5634     3.8716    -2.0664 H       
  36 H36            4.8360    -0.6200    -1.6190 H       
  37 H37            2.8337    -1.1882     2.0825 H       
  38 H38           -1.3823    -1.5673    -0.0431 H       
  39 H39           -1.3497     3.2958    -0.5151 H       
  40 H40           -2.8969     4.1095    -0.9683 H       
  41 H41           -4.9798     0.3931    -0.5118 H       
  42 H42           -5.0374     5.2598    -1.3431 H       
  43 H43            4.5916    -3.3047     0.2840 H       
  44 H44            5.9878    -2.2048     0.1873 H       
  45 H45            5.1442    -2.4380     1.7372 H       
  46 H46            3.4483     3.6370    -3.0315 H       
  47 H47            2.3018     4.8886    -3.5673 H       
  48 H48            2.8119     4.8198    -1.8634 H       
  49 H49            0.1128     1.9406    -3.5048 H       
  50 H50            0.7741     3.2648    -4.4934 H       
  51 H51            1.8136     1.8969    -4.0278 H       
@<TRIPOS>BOND
   1    1    2 ar
   2    1    3 1
   3    1   15 ar
   4    2   13 ar
   5    2   32 1
   6    3    4 1
   7    3   33 1
   8    3   34 1
   9    4    5 1
  10    4    6 am
  11    5   26 1
  12    5   23 1
  13    5   35 1
  14    6    7 1
  15    6   12 2
  16    7    8 2
  17    7    9 1
  18    8   11 1
  19    8   36 1
  20    9   10 2
  21   10   11 1
  22   10   37 1
  23   11   22 1
  24   13   24 ar
  25   13   38 1
  26   14   15 ar
  27   14   16 1
  28   14   24 ar
  29   15   39 1
  30   16   17 ar
  31   16   18 ar
  32   17   21 ar
  33   17   40 1
  34   18   19 ar
  35   18   41 1
  36   19   20 ar
  37   19   27 1
  38   20   21 ar
  39   20   25 1
  40   21   42 1
  41   22   43 1
  42   22   44 1
  43   22   45 1
  44   23   46 1
  45   23   47 1
  46   23   48 1
  47   26   49 1
  48   26   50 1
  49   26   51 1
  50   27   28 1
  51   28   29 1
  52   28   30 1
  53   28   31 1

#	End of record

