#	Name: ASD06350008
#	Creating user name:	WinNT
#	Creation time:	15. 06. 2019 21:06

#	Modifying user name:	WinNT
#	Modification time:	15. 06. 2019 21:06

#	Program:	/corina/corina34_cracker 3.40 0067  02.08.2006

@<TRIPOS>MOLECULE
ASD06350008
  28   29    0    0    0
SMALL
NO_CHARGES


@<TRIPOS>ATOM
   1 C1            -0.2425     1.0543     2.0546 C.3     
   2 O2            -0.1663    -0.2986     1.5331 O.3     
   3 C3            -1.3047    -0.8318     1.0459 C.2     
   4 O4            -2.3330    -0.1834     1.0568 O.2     
   5 C5            -1.3027    -2.1965     0.5019 C.2     
   6 C6            -2.4733    -2.7601    -0.0052 C.2     
   7 C7            -2.4329    -4.0579    -0.5132 C.2     
   8 C8            -1.2676    -4.7550    -0.5105 C.2     
   9 N9            -0.1260    -4.2138    -0.0188 N.am    
  10 C10           -0.1084    -2.9623     0.4777 C.2     
  11 O11            0.9278    -2.4928     0.9154 O.2     
  12 C12            1.0554    -4.9661    -0.0336 C.ar    
  13 C13            1.3790    -5.7739     1.0486 C.ar    
  14 C14            2.5443    -6.5147     1.0321 C.ar    
  15 C15            3.3902    -6.4522    -0.0627 C.ar    
  16 C16            3.0696    -5.6469    -1.1428 C.ar    
  17 C17            1.9020    -4.9096    -1.1330 C.ar    
  18 F18            4.5300    -7.1774    -0.0768 F       
  19 H19            0.7398     1.3611     2.4138 H       
  20 H20           -0.5678     1.7306     1.2641 H       
  21 H21           -0.9567     1.0869     2.8774 H       
  22 H22           -3.3967    -2.2001    -0.0040 H       
  23 H23           -3.3303    -4.5097    -0.9094 H       
  24 H24           -1.2500    -5.7595    -0.9070 H       
  25 H25            0.7199    -5.8224     1.9028 H       
  26 H26            2.7963    -7.1430     1.8736 H       
  27 H27            3.7308    -5.5992    -1.9955 H       
  28 H28            1.6521    -4.2819    -1.9757 H       
@<TRIPOS>BOND
   1    1    2 1
   2    1   19 1
   3    1   20 1
   4    1   21 1
   5    2    3 1
   6    3    4 2
   7    3    5 1
   8    5    6 2
   9    5   10 1
  10    6    7 1
  11    6   22 1
  12    7    8 2
  13    7   23 1
  14    8    9 1
  15    8   24 1
  16    9   10 am
  17    9   12 1
  18   10   11 2
  19   12   13 ar
  20   12   17 ar
  21   13   14 ar
  22   13   25 1
  23   14   15 ar
  24   14   26 1
  25   15   16 ar
  26   15   18 1
  27   16   17 ar
  28   16   27 1
  29   17   28 1

#	End of record

