#	Name: ASD01880017
#	Creating user name:	WinNT
#	Creation time:	15. 06. 2019 19:39

#	Modifying user name:	WinNT
#	Modification time:	15. 06. 2019 19:39

#	Program:	/corina/corina34_cracker 3.40 0067  02.08.2006

@<TRIPOS>MOLECULE
ASD01880017
  47   49    0    0    0
SMALL
NO_CHARGES


@<TRIPOS>ATOM
   1 N1            -0.0127     1.2882     0.1291 N.2     
   2 N2             0.0042     0.0012     0.1079 N.pl3   
   3 N3             1.2257    -0.4089     0.0844 N.2     
   4 C4             2.0076     0.6524     0.0911 C.2     
   5 N5             1.2016     1.7232     0.1196 N.2     
   6 C6             3.4918     0.6602     0.0716 C.ar    
   7 C7             4.1836     1.8697     0.0818 C.ar    
   8 C8             5.5627     1.8740     0.0636 C.ar    
   9 C9             6.2615     0.6748     0.0347 C.ar    
  10 C10            5.5748    -0.5317     0.0245 C.ar    
  11 C11            4.1959    -0.5420     0.0489 C.ar    
  12 C12           14.0197    -2.7927    -0.1286 C.ar    
  13 C13           14.7061    -1.5815    -0.1187 C.ar    
  14 C14           16.0706    -1.5606    -0.1321 C.ar    
  15 C15           16.7911    -2.7624    -0.1555 C.ar    
  16 C16           16.1009    -3.9881    -0.1651 C.ar    
  17 C17           14.7165    -3.9933    -0.1517 C.ar    
  18 Br18          13.7758    -5.6337    -0.1637 Br      
  19 O19           16.7874    -5.1575    -0.1881 O.3     
  20 C20           18.2558    -2.7423    -0.1704 C.2     
  21 C21           18.9903    -1.4315    -0.2858 C.3     
  22 O22           18.8777    -3.7811    -0.0899 O.2     
  23 O23            7.6201     0.6820     0.0160 O.3     
  24 C24            8.2752    -0.5877    -0.0135 C.3     
  25 C25           12.0079    -1.5302    -0.0804 C.3     
  26 C26            9.7908    -0.3792    -0.0312 C.3     
  27 C27           10.4922    -1.7386    -0.0627 C.3     
  28 O28           12.6630    -2.7998    -0.1098 O.3     
  29 H29           -0.7796    -0.5703     0.1098 H       
  30 H30            3.6405     2.8029     0.1036 H       
  31 H31            6.0994     2.8112     0.0715 H       
  32 H32            6.1210    -1.4631     0.0017 H       
  33 H33            3.6622    -1.4809     0.0409 H       
  34 H34           14.1554    -0.6527    -0.1007 H       
  35 H35           16.5957    -0.6169    -0.1251 H       
  36 H36           16.9957    -5.5087     0.6885 H       
  37 H37           18.2730    -0.6255    -0.4408 H       
  38 H38           19.5512    -1.2474     0.6305 H       
  39 H39           19.6779    -1.4733    -1.1305 H       
  40 H40            7.9975    -1.1604     0.8714 H       
  41 H41            7.9728    -1.1319    -0.9081 H       
  42 H42           12.2855    -0.9575    -0.9653 H       
  43 H43           12.3103    -0.9859     0.8143 H       
  44 H44           10.0685     0.1935    -0.9161 H       
  45 H45           10.0932     0.1650     0.8635 H       
  46 H46           10.1898    -2.2828    -0.9574 H       
  47 H47           10.2146    -2.3113     0.8222 H       
@<TRIPOS>BOND
   1    1    2 1
   2    1    5 2
   3    2    3 1
   4    2   29 1
   5    3    4 2
   6    4    5 1
   7    4    6 1
   8    6    7 ar
   9    6   11 ar
  10    7    8 ar
  11    7   30 1
  12    8    9 ar
  13    8   31 1
  14    9   10 ar
  15    9   23 1
  16   10   11 ar
  17   10   32 1
  18   11   33 1
  19   12   13 ar
  20   12   17 ar
  21   12   28 1
  22   13   14 ar
  23   13   34 1
  24   14   15 ar
  25   14   35 1
  26   15   16 ar
  27   15   20 1
  28   16   17 ar
  29   16   19 1
  30   17   18 1
  31   19   36 1
  32   20   21 1
  33   20   22 2
  34   21   37 1
  35   21   38 1
  36   21   39 1
  37   23   24 1
  38   24   26 1
  39   24   40 1
  40   24   41 1
  41   25   28 1
  42   25   27 1
  43   25   42 1
  44   25   43 1
  45   26   27 1
  46   26   44 1
  47   26   45 1
  48   27   46 1
  49   27   47 1

#	End of record

