#	Name: ASD05430691
#	Creating user name:	WinNT
#	Creation time:	15. 06. 2019 21:00

#	Modifying user name:	WinNT
#	Modification time:	15. 06. 2019 21:00

#	Program:	/corina/corina34_cracker 3.40 0067  02.08.2006

@<TRIPOS>MOLECULE
ASD05430691
  21   21    0    0    0
SMALL
NO_CHARGES


@<TRIPOS>ATOM
   1 C1            -0.0184     1.5028     0.0103 C.2     
   2 C2             0.0021    -0.0041     0.0020 C.3     
   3 C3             0.7421    -0.5109     1.2415 C.3     
   4 C4            -1.4333    -0.5336     0.0129 C.3     
   5 C5             0.7182    -0.4975    -1.2568 C.3     
   6 C6             1.0609     2.2860     0.0042 C.2     
   7 C7             0.7958     3.6451     0.0140 C.2     
   8 C8            -0.5003     3.9645     0.0281 C.2     
   9 S9            -1.4693     2.4967     0.0219 S.3     
  10 Cl10          -1.1326     5.5812     0.0429 Cl      
  11 H11            0.2319    -0.1594     2.1383 H       
  12 H12            0.7568    -1.6008     1.2356 H       
  13 H13            1.7647    -0.1336     1.2338 H       
  14 H14           -1.9605    -0.1726    -0.8702 H       
  15 H15           -1.4185    -1.6235     0.0069 H       
  16 H16           -1.9435    -0.1821     0.9097 H       
  17 H17            1.7408    -0.1202    -1.2645 H       
  18 H18            0.7330    -1.5874    -1.2628 H       
  19 H19            0.1910    -0.1364    -2.1398 H       
  20 H20            2.0657     1.8902    -0.0072 H       
  21 H21            1.5780     4.3898     0.0109 H       
@<TRIPOS>BOND
   1    1    2 1
   2    1    6 2
   3    1    9 1
   4    2    3 1
   5    2    4 1
   6    2    5 1
   7    3   11 1
   8    3   12 1
   9    3   13 1
  10    4   14 1
  11    4   15 1
  12    4   16 1
  13    5   17 1
  14    5   18 1
  15    5   19 1
  16    6    7 1
  17    6   20 1
  18    7    8 2
  19    7   21 1
  20    8    9 1
  21    8   10 1

#	End of record

