#	Name: ASD04170027
#	Creating user name:	WinNT
#	Creation time:	15. 06. 2019 20:48

#	Modifying user name:	WinNT
#	Modification time:	15. 06. 2019 20:48

#	Program:	/corina/corina34_cracker 3.40 0067  02.08.2006

@<TRIPOS>MOLECULE
ASD04170027
  38   40    0    0    0
SMALL
NO_CHARGES


@<TRIPOS>ATOM
   1 O1             0.0021    -0.0041     0.0020 O.2     
   2 C2            -0.0144     1.2105     0.0087 C.2     
   3 C3             1.2548     1.9665     0.0006 C.ar    
   4 C4             2.4750     1.2880    -0.0147 C.ar    
   5 C5             3.6564     2.0002    -0.0221 C.ar    
   6 C6             3.6340     3.3837    -0.0139 C.ar    
   7 C7             2.4283     4.0623     0.0012 C.ar    
   8 C8             1.2394     3.3627     0.0025 C.ar    
   9 C9             4.9287     4.1548    -0.0211 C.3     
  10 O10           -1.1900     1.8681     0.0178 O.3     
  11 C11           -2.3969     1.0609     0.0192 C.3     
  12 C12           -2.8164     0.7679     1.4615 C.3     
  13 N13           -4.1548     1.3070     1.7139 N.4     
  14 C14           -5.1399     0.6749     0.8330 C.3     
  15 C15           -4.7975     0.9655    -0.6299 C.3     
  16 C16           -3.5283     1.8263    -0.6796 C.3     
  17 C17           -3.7911     3.1208     0.1012 C.3     
  18 C18           -4.1659     2.7614     1.5407 C.3     
  19 H19            2.4939     0.2082    -0.0203 H       
  20 H20            4.6010     1.4767    -0.0339 H       
  21 H21            2.4179     5.1422     0.0075 H       
  22 H22            0.2990     3.8936     0.0140 H       
  23 H23            5.2317     4.3467    -1.0504 H       
  24 H24            4.7901     5.1024     0.4995 H       
  25 H25            5.7009     3.5732     0.4825 H       
  26 H26           -2.2098     0.1233    -0.5044 H       
  27 H27           -2.8239    -0.3099     1.6241 H       
  28 H28           -2.1052     1.2303     2.1460 H       
  29 H29           -4.4054     1.1047     2.6701 H       
  30 H30           -5.1345    -0.4024     0.9986 H       
  31 H31           -6.1311     1.0687     1.0576 H       
  32 H32           -4.6238     0.0278    -1.1577 H       
  33 H33           -5.6220     1.5032    -1.0982 H       
  34 H34           -3.2572     2.0402    -1.7135 H       
  35 H35           -2.8917     3.7366     0.1008 H       
  36 H36           -4.6110     3.6679    -0.3640 H       
  37 H37           -5.1624     3.1443     1.7613 H       
  38 H38           -3.4473     3.2126     2.2249 H       
@<TRIPOS>BOND
   1    1    2 2
   2    2    3 1
   3    2   10 1
   4    3    4 ar
   5    3    8 ar
   6    4    5 ar
   7    4   19 1
   8    5    6 ar
   9    5   20 1
  10    6    7 ar
  11    6    9 1
  12    7    8 ar
  13    7   21 1
  14    8   22 1
  15    9   23 1
  16    9   24 1
  17    9   25 1
  18   10   11 1
  19   11   12 1
  20   11   16 1
  21   11   26 1
  22   12   13 1
  23   12   27 1
  24   12   28 1
  25   13   14 1
  26   13   18 1
  27   13   29 1
  28   14   15 1
  29   14   30 1
  30   14   31 1
  31   15   16 1
  32   15   32 1
  33   15   33 1
  34   16   17 1
  35   16   34 1
  36   17   18 1
  37   17   35 1
  38   17   36 1
  39   18   37 1
  40   18   38 1

#	End of record

