#	Name: ASD01913909
#	Creating user name:	WinNT
#	Creation time:	15. 06. 2019 20:02

#	Modifying user name:	WinNT
#	Modification time:	15. 06. 2019 20:02

#	Program:	/corina/corina34_cracker 3.40 0067  02.08.2006

@<TRIPOS>MOLECULE
ASD01913909
  42   44    0    0    0
SMALL
NO_CHARGES


@<TRIPOS>ATOM
   1 C1            -0.0173     1.4278     0.0099 C.ar    
   2 C2             0.0021    -0.0041     0.0020 C.1     
   3 C3             0.0180    -1.1779    -0.0044 C.1     
   4 C4             0.0374    -2.6098    -0.0123 C.ar    
   5 C5            -1.1552    -3.3455    -0.0049 C.ar    
   6 C6             0.0738    -5.2913    -0.0280 C.ar    
   7 N7             1.2234    -4.6330    -0.0407 N.ar    
   8 C8             1.2495    -3.3128    -0.0336 C.ar    
   9 N9            -1.0933    -4.6646    -0.0130 N.ar    
  10 C10            1.1562     3.5252     0.0104 C.ar    
  11 C11           -1.2349     2.1130     0.0310 C.ar    
  12 C12           -0.0518     4.1988     0.0260 C.ar    
  13 C13           -1.2455     3.4942     0.0390 C.ar    
  14 N14            0.0926    -6.6796    -0.0366 N.am    
  15 C15            1.1812     2.1459     0.0023 C.ar    
  16 C16            1.2788    -7.2884    -0.0573 C.2     
  17 C17            1.4444    -8.7798    -0.1172 C.3     
  18 C18            0.1366    -9.4655     0.2858 C.3     
  19 C19           -1.0110    -8.8217    -0.5016 C.3     
  20 C20           -1.1854    -7.3802    -0.0164 C.3     
  21 C21            0.2143   -10.9575    -0.0441 C.3     
  22 C22           -0.1009    -9.2807     1.7860 C.3     
  23 O23            2.2774    -6.6009    -0.0266 O.2     
  24 F24           -2.4211     4.1595     0.0590 F       
  25 H25           -2.1103    -2.8415     0.0077 H       
  26 H26            2.1905    -2.7829    -0.0443 H       
  27 H27            2.0824     4.0806     0.0000 H       
  28 H28           -2.1650     1.5643     0.0408 H       
  29 H29           -0.0649     5.2787     0.0324 H       
  30 H30            2.1256     1.6221    -0.0095 H       
  31 H31            1.7095    -9.0742    -1.1327 H       
  32 H32            2.2379    -9.0837     0.5654 H       
  33 H33           -0.7728    -8.8272    -1.5653 H       
  34 H34           -1.9316    -9.3789    -0.3277 H       
  35 H35           -1.5834    -7.3872     0.9983 H       
  36 H36           -1.8858    -6.8618    -0.6713 H       
  37 H37            1.0423   -11.4080     0.5032 H       
  38 H38           -0.7184   -11.4424     0.2442 H       
  39 H39            0.3743   -11.0850    -1.1147 H       
  40 H40           -0.1647    -8.2171     2.0154 H       
  41 H41           -1.0327    -9.7701     2.0694 H       
  42 H42            0.7257    -9.7233     2.3419 H       
@<TRIPOS>BOND
   1    1    2 1
   2    1   15 ar
   3    1   11 ar
   4    2    3 3
   5    3    4 1
   6    4    5 ar
   7    4    8 ar
   8    5    9 ar
   9    5   25 1
  10    6    7 ar
  11    6   14 1
  12    6    9 ar
  13    7    8 ar
  14    8   26 1
  15   10   12 ar
  16   10   15 ar
  17   10   27 1
  18   11   13 ar
  19   11   28 1
  20   12   13 ar
  21   12   29 1
  22   13   24 1
  23   14   16 am
  24   14   20 1
  25   15   30 1
  26   16   17 1
  27   16   23 2
  28   17   18 1
  29   17   31 1
  30   17   32 1
  31   18   19 1
  32   18   21 1
  33   18   22 1
  34   19   20 1
  35   19   33 1
  36   19   34 1
  37   20   35 1
  38   20   36 1
  39   21   37 1
  40   21   38 1
  41   21   39 1
  42   22   40 1
  43   22   41 1
  44   22   42 1

#	End of record

