#	Name: ASD01941071
#	Creating user name:	WinNT
#	Creation time:	15. 06. 2019 20:13

#	Modifying user name:	WinNT
#	Modification time:	15. 06. 2019 20:13

#	Program:	/corina/corina34_cracker 3.40 0067  02.08.2006

@<TRIPOS>MOLECULE
ASD01941071
  57   60    0    0    0
SMALL
NO_CHARGES


@<TRIPOS>ATOM
   1 C1            -0.8694     1.3834     0.3114 C.3     
   2 C2            -1.3514    -0.0426     0.5802 C.3     
   3 N3            -2.6440    -0.0916     1.2460 N.am    
   4 C4            -2.7015    -0.0074     2.5949 C.2     
   5 C5            -1.4621     0.4359     3.2658 C.2     
   6 C6            -0.7290     1.4773     2.7993 C.2     
   7 C7            -1.1054     2.2496     1.5516 C.3     
   8 O8            -3.7118    -0.2797     3.2173 O.2     
   9 C9             0.6246     1.3622    -0.0181 C.3     
  10 C10           -1.6435     1.9681    -0.8718 C.3     
  11 S11           -0.7381    -0.2493     4.7037 S.3     
  12 C12            0.5343     0.8871     4.6684 C.2     
  13 C13            0.3896     1.7362     3.5922 C.2     
  14 N14            1.5590     0.9480     5.5851 N.pl3   
  15 C15            1.6803    -0.0427     6.5656 C.ar    
  16 C16            1.4831    -1.3764     6.2351 C.ar    
  17 C17            1.6035    -2.3527     7.2053 C.ar    
  18 C18            1.9197    -2.0034     8.5055 C.ar    
  19 C19            2.1172    -0.6753     8.8400 C.ar    
  20 C20            2.0045     0.3061     7.8728 C.ar    
  21 F21            2.1973     1.6029     8.1991 F       
  22 I22            2.0994    -3.4884     9.9724 I       
  23 C23            1.3336     2.8227     3.3044 C.2     
  24 O24            2.2983     2.6177     2.5915 O.2     
  25 N25            1.1320     4.0474     3.8297 N.am    
  26 C26            2.0742     5.1318     3.5425 C.3     
  27 C27            1.6968     5.7992     2.2180 C.3     
  28 N28            2.6283     6.8998     1.9402 N.3     
  29 C29            2.5562     7.9323     2.9818 C.3     
  30 C30            2.9592     7.3287     4.3291 C.3     
  31 C31            2.0164     6.1702     4.6663 C.3     
  32 H32           -1.4260    -0.5723    -0.3695 H       
  33 H33           -0.6159    -0.5495     1.2048 H       
  34 H34           -3.4581    -0.1835     0.7268 H       
  35 H35           -0.4952     3.1504     1.4855 H       
  36 H36           -2.1575     2.5296     1.6028 H       
  37 H37            0.7928     0.7486    -0.9032 H       
  38 H38            0.9688     2.3785    -0.2099 H       
  39 H39            1.1765     0.9445     0.8239 H       
  40 H40           -2.7081     1.9821    -0.6382 H       
  41 H41           -1.3002     2.9846    -1.0639 H       
  42 H42           -1.4736     1.3540    -1.7562 H       
  43 H43            2.1972     1.6777     5.5514 H       
  44 H44            1.2354    -1.6507     5.2203 H       
  45 H45            1.4500    -3.3903     6.9480 H       
  46 H46            2.3641    -0.4056     9.8562 H       
  47 H47            0.3630     4.2108     4.3980 H       
  48 H48            3.0839     4.7274     3.4716 H       
  49 H49            1.7508     5.0658     1.4135 H       
  50 H50            0.6817     6.1906     2.2849 H       
  51 H51            3.5716     6.5574     1.8352 H       
  52 H52            3.2343     8.7483     2.7320 H       
  53 H53            1.5370     8.3138     3.0451 H       
  54 H54            3.9831     6.9594     4.2707 H       
  55 H55            2.8905     8.0914     5.1048 H       
  56 H56            0.9978     6.5459     4.7631 H       
  57 H57            2.3264     5.7095     5.6043 H       
@<TRIPOS>BOND
   1    1    2 1
   2    1    9 1
   3    1   10 1
   4    1    7 1
   5    2    3 1
   6    2   32 1
   7    2   33 1
   8    3    4 am
   9    3   34 1
  10    4    5 1
  11    4    8 2
  12    5    6 2
  13    5   11 1
  14    6    7 1
  15    6   13 1
  16    7   35 1
  17    7   36 1
  18    9   37 1
  19    9   38 1
  20    9   39 1
  21   10   40 1
  22   10   41 1
  23   10   42 1
  24   11   12 1
  25   12   13 2
  26   12   14 1
  27   13   23 1
  28   14   15 1
  29   14   43 1
  30   15   16 ar
  31   15   20 ar
  32   16   17 ar
  33   16   44 1
  34   17   18 ar
  35   17   45 1
  36   18   19 ar
  37   18   22 1
  38   19   20 ar
  39   19   46 1
  40   20   21 1
  41   23   24 2
  42   23   25 am
  43   25   26 1
  44   25   47 1
  45   26   27 1
  46   26   31 1
  47   26   48 1
  48   27   28 1
  49   27   49 1
  50   27   50 1
  51   28   29 1
  52   28   51 1
  53   29   30 1
  54   29   52 1
  55   29   53 1
  56   30   31 1
  57   30   54 1
  58   30   55 1
  59   31   56 1
  60   31   57 1

#	End of record

