#	Name: ASD00061036
#	Creating user name:	WinNT
#	Creation time:	15. 06. 2019 18:29

#	Modifying user name:	WinNT
#	Modification time:	15. 06. 2019 18:29

#	Program:	/corina/corina34_cracker 3.40 0067  02.08.2006

@<TRIPOS>MOLECULE
ASD00061036
  50   52    0    0    0
SMALL
NO_CHARGES


@<TRIPOS>ATOM
   1 C1            -0.2455     3.6035     1.8653 C.ar    
   2 C2            -0.7518     2.3336     1.6081 C.ar    
   3 C3             0.0683     1.3492     1.0666 C.ar    
   4 C4             1.3809     1.6264     0.7835 C.ar    
   5 C5             1.8954     2.9034     1.0400 C.ar    
   6 C6             1.0656     3.8910     1.5854 C.ar    
   7 C7             3.3007     3.2056     0.7392 C.2     
   8 C8             3.8517     4.5806     1.0163 C.3     
   9 O9             4.0179     2.3486     0.2677 O.2     
  10 C10            5.3593     4.5880     0.7555 C.3     
  11 C11            5.8834     5.9956     0.8775 C.ar    
  12 C12            6.5002     6.5993    -0.2024 C.ar    
  13 C13            6.9810     7.8903    -0.0911 C.ar    
  14 C14            6.8449     8.5785     1.1014 C.ar    
  15 C15            6.2275     7.9738     2.1819 C.ar    
  16 C16            5.7421     6.6848     2.0676 C.ar    
  17 Cl17           7.4491    10.1998     1.2422 Cl      
  18 O18           -2.0496     2.0542     1.8869 O.3     
  19 C19           -3.0009     2.5351     1.0441 C.ar    
  20 C20           -2.6299     3.1933    -0.1197 C.ar    
  21 C21           -3.5990     3.6813    -0.9746 C.ar    
  22 C22           -4.9377     3.5147    -0.6713 C.ar    
  23 C23           -5.3101     2.8596     0.4881 C.ar    
  24 C24           -4.3450     2.3639     1.3431 C.ar    
  25 C25            6.0586     3.6928     1.7805 C.3     
  26 C26            7.5505     3.7752     1.5845 C.2     
  27 O27            8.2373     4.3377     2.4041 O.2     
  28 O28            8.1164     3.2237     0.4995 O.3     
  29 C29            5.7084     4.1539     3.1718 C.2     
  30 O30            6.4698     4.8671     3.7814 O.2     
  31 O31            4.5508     3.7723     3.7339 O.3     
  32 H32           -0.8874     4.3655     2.2820 H       
  33 H33           -0.3294     0.3647     0.8691 H       
  34 H34            2.0170     0.8612     0.3637 H       
  35 H35            1.4575     4.8774     1.7847 H       
  36 H36            3.3664     5.3051     0.3624 H       
  37 H37            3.6616     4.8454     2.0564 H       
  38 H38            5.5562     4.2128    -0.2488 H       
  39 H39            6.6067     6.0619    -1.1331 H       
  40 H40            7.4632     8.3617    -0.9347 H       
  41 H41            6.1210     8.5105     3.1130 H       
  42 H42            5.2601     6.2126     2.9109 H       
  43 H43           -1.5844     3.3243    -0.3567 H       
  44 H44           -3.3108     4.1937    -1.8806 H       
  45 H45           -5.6938     3.8973    -1.3409 H       
  46 H46           -6.3564     2.7311     0.7229 H       
  47 H47           -4.6364     1.8477     2.2459 H       
  48 H48            5.7309     2.6620     1.6461 H       
  49 H49            9.0822     3.2361     0.4538 H       
  50 H50            4.3700     4.0933     4.6280 H       
@<TRIPOS>BOND
   1    1    2 ar
   2    1    6 ar
   3    1   32 1
   4    2    3 ar
   5    2   18 1
   6    3    4 ar
   7    3   33 1
   8    4    5 ar
   9    4   34 1
  10    5    6 ar
  11    5    7 1
  12    6   35 1
  13    7    8 1
  14    7    9 2
  15    8   10 1
  16    8   36 1
  17    8   37 1
  18   10   11 1
  19   10   25 1
  20   10   38 1
  21   11   12 ar
  22   11   16 ar
  23   12   13 ar
  24   12   39 1
  25   13   14 ar
  26   13   40 1
  27   14   15 ar
  28   14   17 1
  29   15   16 ar
  30   15   41 1
  31   16   42 1
  32   18   19 1
  33   19   20 ar
  34   19   24 ar
  35   20   21 ar
  36   20   43 1
  37   21   22 ar
  38   21   44 1
  39   22   23 ar
  40   22   45 1
  41   23   24 ar
  42   23   46 1
  43   24   47 1
  44   25   26 1
  45   25   29 1
  46   25   48 1
  47   26   27 2
  48   26   28 1
  49   28   49 1
  50   29   30 2
  51   29   31 1
  52   31   50 1

#	End of record

