#	Name: ASD01884004
#	Creating user name:	WinNT
#	Creation time:	15. 06. 2019 19:47

#	Modifying user name:	WinNT
#	Modification time:	15. 06. 2019 19:47

#	Program:	/corina/corina34_cracker 3.40 0067  02.08.2006

@<TRIPOS>MOLECULE
ASD01884004
  59   62    0    0    0
SMALL
NO_CHARGES


@<TRIPOS>ATOM
   1 C1            -0.3013     1.9150    -0.2613 C.3     
   2 C2            -0.1927     0.3911    -0.1801 C.3     
   3 C3             0.5702     0.0009     1.0875 C.3     
   4 C4            -1.5953    -0.2187    -0.1392 C.3     
   5 C5            -1.4897    -1.7444    -0.1838 C.3     
   6 N6            -2.8327    -2.3283    -0.1446 N.am    
   7 C7            -3.4324    -2.6386     1.1480 C.3     
   8 C8            -4.9173    -2.2815     1.2076 C.3     
   9 N9            -5.5817    -2.7824     0.0009 N.pl3   
  10 C10           -4.9052    -2.9028    -1.2070 C.2     
  11 C11           -5.7813    -3.3694    -2.1460 C.2     
  12 C12           -7.0121    -3.5510    -1.5099 C.2     
  13 C13           -6.8605    -3.1855    -0.1848 C.2     
  14 C14           -7.9133    -3.2275     0.8502 C.ar    
  15 C15           -9.0372    -4.0379     0.6729 C.ar    
  16 C16          -10.0174    -4.0748     1.6401 C.ar    
  17 C17           -9.8891    -3.3059     2.7921 C.ar    
  18 C18           -8.7712    -2.4979     2.9717 C.ar    
  19 C19           -7.7845    -2.4613     2.0112 C.ar    
  20 N20          -10.8835    -3.3447     3.7687 N.3     
  21 C21          -10.8564    -4.6267     4.5006 C.3     
  22 C22          -11.4273    -4.4100     5.8805 C.3     
  23 C23          -12.9425    -4.6607     5.9144 C.3     
  24 O24          -13.6174    -4.1243     4.7599 O.3     
  25 C25          -13.2082    -2.8520     4.3224 C.3     
  26 C26          -12.1359    -3.0154     3.2253 C.3     
  27 C27           -3.4834    -2.5590    -1.3093 C.2     
  28 O28           -2.9175    -2.4886    -2.3848 O.2     
  29 H29            0.6980     2.3495    -0.2904 H       
  30 H30           -0.8448     2.1930    -1.1643 H       
  31 H31           -0.8344     2.2884     0.6131 H       
  32 H32            0.3404     0.0177    -1.0544 H       
  33 H33            0.6475    -1.0848     1.1453 H       
  34 H34            1.5695     0.4353     1.0583 H       
  35 H35            0.0371     0.3743     1.9618 H       
  36 H36           -2.0965     0.0841     0.7802 H       
  37 H37           -2.1688     0.1311    -0.9976 H       
  38 H38           -0.9886    -2.0472    -1.1032 H       
  39 H39           -0.9163    -2.0942     0.6747 H       
  40 H40           -3.3185    -3.7050     1.3422 H       
  41 H41           -2.9050    -2.0830     1.9234 H       
  42 H42           -5.3671    -2.7402     2.0882 H       
  43 H43           -5.0296    -1.1986     1.2624 H       
  44 H44           -5.5632    -3.5617    -3.1861 H       
  45 H45           -7.9196    -3.9124    -1.9707 H       
  46 H46           -9.1378    -4.6346    -0.2216 H       
  47 H47          -10.8866    -4.7011     1.5036 H       
  48 H48           -8.6747    -1.9018     3.8671 H       
  49 H49           -6.9144    -1.8374     2.1534 H       
  50 H50          -11.4572    -5.3641     3.9682 H       
  51 H51           -9.8283    -4.9795     4.5817 H       
  52 H52          -10.9388    -5.0903     6.5781 H       
  53 H53          -11.2298    -3.3837     6.1897 H       
  54 H54          -13.1211    -5.7350     5.9596 H       
  55 H55          -13.3562    -4.1987     6.8108 H       
  56 H56          -14.0647    -2.3131     3.9173 H       
  57 H57          -12.7897    -2.2956     5.1610 H       
  58 H58          -12.0484    -2.0805     2.6716 H       
  59 H59          -12.4451    -3.8050     2.5405 H       
@<TRIPOS>BOND
   1    1    2 1
   2    1   29 1
   3    1   30 1
   4    1   31 1
   5    2    3 1
   6    2    4 1
   7    2   32 1
   8    3   33 1
   9    3   34 1
  10    3   35 1
  11    4    5 1
  12    4   36 1
  13    4   37 1
  14    5    6 1
  15    5   38 1
  16    5   39 1
  17    6   27 am
  18    6    7 1
  19    7    8 1
  20    7   40 1
  21    7   41 1
  22    8    9 1
  23    8   42 1
  24    8   43 1
  25    9   13 1
  26    9   10 1
  27   10   11 2
  28   10   27 1
  29   11   12 1
  30   11   44 1
  31   12   13 2
  32   12   45 1
  33   13   14 1
  34   14   19 ar
  35   14   15 ar
  36   15   16 ar
  37   15   46 1
  38   16   17 ar
  39   16   47 1
  40   17   18 ar
  41   17   20 1
  42   18   19 ar
  43   18   48 1
  44   19   49 1
  45   20   26 1
  46   20   21 1
  47   21   22 1
  48   21   50 1
  49   21   51 1
  50   22   23 1
  51   22   52 1
  52   22   53 1
  53   23   24 1
  54   23   54 1
  55   23   55 1
  56   24   25 1
  57   25   26 1
  58   25   56 1
  59   25   57 1
  60   26   58 1
  61   26   59 1
  62   27   28 2

#	End of record

