#	Name: ASD01900016
#	Creating user name:	WinNT
#	Creation time:	15. 06. 2019 19:51

#	Modifying user name:	WinNT
#	Modification time:	15. 06. 2019 19:51

#	Program:	/corina/corina34_cracker 3.40 0067  02.08.2006

@<TRIPOS>MOLECULE
ASD01900016
  35   36    0    0    0
SMALL
NO_CHARGES


@<TRIPOS>ATOM
   1 C1            -0.0105     1.5324    -0.0083 C.3     
   2 C2             0.0068     0.0025    -0.0141 C.3     
   3 C3             0.7273    -0.4946    -1.2690 C.3     
   4 C4             2.1640     0.0317    -1.2744 C.3     
   5 C5             2.1466     1.5616    -1.2686 C.3     
   6 C6             1.4261     2.0587    -0.0137 C.3     
   7 C7             3.5616     2.0800    -1.2739 C.2     
   8 C8             2.8864    -0.4671    -0.0495 C.2     
   9 O9             3.7919     3.4024    -1.2701 O.3     
  10 N10            3.0256    -1.7915     0.1581 N.am    
  11 O11            4.4888     1.3054    -1.2816 O.2     
  12 O12            3.3424     0.3232     0.7495 O.2     
  13 C13            3.7910    -2.2543     1.2340 C.ar    
  14 C14            3.4195    -3.4122     1.9042 C.ar    
  15 C15            4.1779    -3.8685     2.9675 C.ar    
  16 C16            5.3065    -3.1709     3.3639 C.ar    
  17 C17            5.6787    -2.0159     2.6969 C.ar    
  18 C18            4.9262    -1.5595     1.6294 C.ar    
  19 F19            6.7802    -1.3371     3.0855 F       
  20 F20            3.8169    -4.9951     3.6199 F       
  21 H21            1.6241     1.9224    -2.1545 H       
  22 H22            2.6773    -0.3224    -2.1684 H       
  23 H23           -0.5330     1.8932    -0.8942 H       
  24 H24           -0.5238     1.8865     0.8857 H       
  25 H25            0.5293    -0.3584     0.8718 H       
  26 H26           -1.0166    -0.3725    -0.0102 H       
  27 H27            0.7397    -1.5845    -1.2731 H       
  28 H28            0.2048    -0.1338    -2.1549 H       
  29 H29            1.4138     3.1486    -0.0095 H       
  30 H30            1.9486     1.6979     0.8722 H       
  31 H31            4.7161     3.6871    -1.2738 H       
  32 H32            2.5952    -2.4238    -0.4385 H       
  33 H33            2.5389    -3.9562     1.5958 H       
  34 H34            5.8971    -3.5280     4.1946 H       
  35 H35            5.2170    -0.6588     1.1092 H       
@<TRIPOS>BOND
   1    1    2 1
   2    1    6 1
   3    1   23 1
   4    1   24 1
   5    2    3 1
   6    2   25 1
   7    2   26 1
   8    3    4 1
   9    3   27 1
  10    3   28 1
  11    4    5 1
  12    4    8 1
  13    4   22 1
  14    5    6 1
  15    5    7 1
  16    5   21 1
  17    6   29 1
  18    6   30 1
  19    7    9 1
  20    7   11 2
  21    8   10 am
  22    8   12 2
  23    9   31 1
  24   10   13 1
  25   10   32 1
  26   13   14 ar
  27   13   18 ar
  28   14   15 ar
  29   14   33 1
  30   15   16 ar
  31   15   20 1
  32   16   17 ar
  33   16   34 1
  34   17   18 ar
  35   17   19 1
  36   18   35 1

#	End of record

