#	Name: ASD01883747
#	Creating user name:	WinNT
#	Creation time:	15. 06. 2019 19:47

#	Modifying user name:	WinNT
#	Modification time:	15. 06. 2019 19:47

#	Program:	/corina/corina34_cracker 3.40 0067  02.08.2006

@<TRIPOS>MOLECULE
ASD01883747
  35   38    0    0    0
SMALL
NO_CHARGES


@<TRIPOS>ATOM
   1 C1            -0.0167     1.3789     0.0096 C.2     
   2 C2             0.0021    -0.0041     0.0020 C.2     
   3 C3            -1.2229    -0.7132     0.0104 C.2     
   4 C4            -2.3913    -0.0452     0.0252 C.2     
   5 N5            -2.4195     1.3211     0.0328 N.pl3   
   6 C6            -1.2557     2.0462     0.0309 C.2     
   7 C7            -3.4509     2.2218     0.0468 C.2     
   8 C8            -2.9029     3.4569     0.0477 C.2     
   9 N9            -1.5738     3.3342     0.0389 N.2     
  10 C10           -4.9222     1.8963     0.0584 C.3     
  11 C11            1.2907    -0.7354    -0.0152 C.ar    
  12 C12            1.6539    -1.5259     1.0675 C.ar    
  13 C13            2.8692    -2.2099     1.0395 C.ar    
  14 C14            3.7149    -2.0956    -0.0794 C.ar    
  15 C15            3.3305    -1.2970    -1.1547 C.ar    
  16 C16            2.1375    -0.6333    -1.1253 C.ar    
  17 C17           -5.4603     1.9163    -1.3737 C.3     
  18 F18           -4.7786     0.9660    -2.1414 F       
  19 F19           -6.8263     1.6141    -1.3629 F       
  20 F20           -5.2682     3.1871    -1.9263 F       
  21 Cl21           1.4676     2.2791     0.0003 Cl      
  22 Cl22           4.3682    -1.1507    -2.5386 Cl      
  23 C23            3.5534    -3.1064     1.9750 C.2     
  24 C24            4.7119    -3.4639     1.3990 C.2     
  25 N25            4.8257    -2.8700     0.1717 N.pl3   
  26 H26           -1.2200    -1.7932     0.0046 H       
  27 H27           -3.3198    -0.5968     0.0307 H       
  28 H28           -3.4493     4.3884     0.0573 H       
  29 H29           -5.0719     0.9062     0.4890 H       
  30 H30           -5.4534     2.6367     0.6565 H       
  31 H31            1.0013    -1.6099     1.9239 H       
  32 H32            1.8480    -0.0170    -1.9635 H       
  33 H33            3.1938    -3.4201     2.9439 H       
  34 H34            5.4459    -4.1224     1.8394 H       
  35 H35            5.5771    -2.9786    -0.4320 H       
@<TRIPOS>BOND
   1    1    2 2
   2    1   21 1
   3    1    6 1
   4    2    3 1
   5    2   11 1
   6    3    4 2
   7    3   26 1
   8    4    5 1
   9    4   27 1
  10    5    6 1
  11    5    7 1
  12    6    9 2
  13    7    8 2
  14    7   10 1
  15    8    9 1
  16    8   28 1
  17   10   17 1
  18   10   29 1
  19   10   30 1
  20   11   12 ar
  21   11   16 ar
  22   12   13 ar
  23   12   31 1
  24   13   14 ar
  25   13   23 1
  26   14   15 ar
  27   14   25 1
  28   15   16 ar
  29   15   22 1
  30   16   32 1
  31   17   18 1
  32   17   19 1
  33   17   20 1
  34   23   24 2
  35   23   33 1
  36   24   25 1
  37   24   34 1
  38   25   35 1

#	End of record

