#	Name: ASD03092399
#	Creating user name:	WinNT
#	Creation time:	15. 06. 2019 20:32

#	Modifying user name:	WinNT
#	Modification time:	15. 06. 2019 20:32

#	Program:	/corina/corina34_cracker 3.40 0067  02.08.2006

@<TRIPOS>MOLECULE
ASD03092399
  62   66    0    0    0
SMALL
NO_CHARGES


@<TRIPOS>ATOM
   1 O1             0.8903     1.0034    -0.3453 O.3     
   2 N2             0.7497    -0.1960    -0.2857 N.2     
   3 C3             1.9049    -0.8118    -0.2408 C.2     
   4 C4             2.8974     0.2067    -0.2811 C.2     
   5 C5             2.1837     1.3543    -0.3480 C.2     
   6 C6             2.1323    -2.2756    -0.1634 C.2     
   7 O7             3.2651    -2.7133    -0.1274 O.2     
   8 N8             1.0823    -3.1200    -0.1332 N.am    
   9 C9             2.7359     2.7550    -0.4134 C.3     
  10 C10            1.3069    -4.5656    -0.0568 C.3     
  11 S11           -2.1402    -6.4574     0.6760 S.3     
  12 C12           -1.8181    -6.1986    -0.9828 C.2     
  13 N13           -0.6847    -5.5811    -1.1309 N.2     
  14 C14           -0.0200    -5.2798    -0.0366 C.2     
  15 C15           -0.6265    -5.6650     1.1057 C.2     
  16 N16           -2.6456    -6.5910    -2.0191 N.3     
  17 C17           -3.8481    -7.2643    -1.5072 C.3     
  18 C18           -4.7046    -7.7336    -2.6861 C.3     
  19 O19           -5.0232    -6.6116    -3.5138 O.3     
  20 C20           -3.8753    -5.9327    -4.0302 C.3     
  21 C21           -3.0104    -5.4451    -2.8648 C.3     
  22 C22           -4.3247    -4.7347    -4.8690 C.3     
  23 C23           -5.9959    -8.3638    -2.1605 C.3     
  24 C24            0.3998    -6.2714     4.6671 C.ar    
  25 C25           -0.0891    -6.5090     3.4006 C.ar    
  26 C26           -0.1126    -5.4584     2.4738 C.ar    
  27 C27            0.3659    -4.2060     2.8822 C.ar    
  28 C28            0.8369    -4.0583     4.1686 C.ar    
  29 N29            0.8411    -5.0755     5.0104 N.ar    
  30 C30            1.3548    -2.7173     4.6209 C.3     
  31 C31            0.4252    -7.3906     5.6759 C.3     
  32 C32           -0.8499    -7.6436     6.4827 C.3     
  33 C33           -0.4323    -8.6238     5.3847 C.3     
  34 H34            3.9710     0.0908    -0.2620 H       
  35 H35            0.1779    -2.7705    -0.1620 H       
  36 H36            1.9130     3.4682    -0.4593 H       
  37 H37            3.3370     2.9504     0.4747 H       
  38 H38            3.3573     2.8594    -1.3028 H       
  39 H39            1.8811    -4.8905    -0.9245 H       
  40 H40            1.8595    -4.7999     0.8530 H       
  41 H41           -3.5551    -8.1243    -0.9050 H       
  42 H42           -4.4217    -6.5687    -0.8946 H       
  43 H43           -4.1504    -8.4697    -3.2684 H       
  44 H44           -3.2969    -6.6164    -4.6515 H       
  45 H45           -3.5706    -4.7205    -2.2740 H       
  46 H46           -2.1059    -4.9773    -3.2537 H       
  47 H47           -4.9013    -4.0508    -4.2461 H       
  48 H48           -3.4494    -4.2177    -5.2623 H       
  49 H49           -4.9436    -5.0821    -5.6963 H       
  50 H50           -6.5501    -7.6262    -1.5801 H       
  51 H51           -6.6053    -8.6977    -3.0003 H       
  52 H52           -5.7523    -9.2164    -1.5267 H       
  53 H53           -0.4481    -7.4900     3.1266 H       
  54 H54            0.3658    -3.3696     2.1990 H       
  55 H55            0.5363    -2.1362     5.0457 H       
  56 H56            2.1277    -2.8621     5.3757 H       
  57 H57            1.7750    -2.1838     3.7683 H       
  58 H58            1.3790    -7.5479     6.1796 H       
  59 H59           -0.7351    -7.9677     7.5170 H       
  60 H60           -1.7072    -7.0005     6.2838 H       
  61 H61           -1.0148    -8.6255     4.4634 H       
  62 H62           -0.0427    -9.5928     5.6966 H       
@<TRIPOS>BOND
   1    1    2 1
   2    1    5 1
   3    2    3 2
   4    3    4 1
   5    3    6 1
   6    4    5 2
   7    4   34 1
   8    5    9 1
   9    6    7 2
  10    6    8 am
  11    8   10 1
  12    8   35 1
  13    9   36 1
  14    9   37 1
  15    9   38 1
  16   10   14 1
  17   10   39 1
  18   10   40 1
  19   11   12 1
  20   11   15 1
  21   12   13 2
  22   12   16 1
  23   13   14 1
  24   14   15 2
  25   15   26 1
  26   16   17 1
  27   16   21 1
  28   17   18 1
  29   17   41 1
  30   17   42 1
  31   18   19 1
  32   18   23 1
  33   18   43 1
  34   19   20 1
  35   20   21 1
  36   20   22 1
  37   20   44 1
  38   21   45 1
  39   21   46 1
  40   22   47 1
  41   22   48 1
  42   22   49 1
  43   23   50 1
  44   23   51 1
  45   23   52 1
  46   24   25 ar
  47   24   29 ar
  48   24   31 1
  49   25   26 ar
  50   25   53 1
  51   26   27 ar
  52   27   28 ar
  53   27   54 1
  54   28   29 ar
  55   28   30 1
  56   30   55 1
  57   30   56 1
  58   30   57 1
  59   31   32 1
  60   31   33 1
  61   31   58 1
  62   32   33 1
  63   32   59 1
  64   32   60 1
  65   33   61 1
  66   33   62 1

#	End of record

