#	Name: ASD01881600
#	Creating user name:	WinNT
#	Creation time:	15. 06. 2019 19:43

#	Modifying user name:	WinNT
#	Modification time:	15. 06. 2019 19:43

#	Program:	/corina/corina34_cracker 3.40 0067  02.08.2006

@<TRIPOS>MOLECULE
ASD01881600
  62   65    0    0    0
SMALL
NO_CHARGES


@<TRIPOS>ATOM
   1 C1            -0.0187     1.5258     0.0104 C.3     
   2 C2             0.0021    -0.0041     0.0020 C.3     
   3 C3             0.7421    -0.5109     1.2415 C.3     
   4 O4            -1.3386    -0.4987     0.0122 O.3     
   5 C5             0.7074    -0.4901    -1.2379 C.ar    
   6 C6             0.7543    -1.8424    -1.5086 C.ar    
   7 C7             1.4110    -2.2806    -2.6617 C.ar    
   8 C8             1.9946    -1.3213    -3.4942 C.ar    
   9 C9             1.9008     0.0110    -3.1485 C.ar    
  10 N10            1.2671     0.3833    -2.0527 N.ar    
  11 C11            1.4871    -3.7248    -2.9931 C.ar    
  12 C12            2.1461    -4.1438    -4.1474 C.ar    
  13 C13            2.2138    -5.4883    -4.4508 C.ar    
  14 C14            1.6286    -6.4196    -3.6117 C.ar    
  15 C15            0.9729    -6.0095    -2.4651 C.ar    
  16 C16            0.9049    -4.6676    -2.1484 C.ar    
  17 C17            2.9261    -5.9428    -5.6986 C.3     
  18 O18            4.3024    -6.1849    -5.4001 O.3     
  19 N19            7.6954    -7.8827    -9.3509 N.pl3   
  20 N20            8.8437    -7.9540    -8.5483 N.2     
  21 N21            8.5482    -7.6042    -7.3462 N.2     
  22 C22            7.2410    -7.2873    -7.2584 C.ar    
  23 C23            6.6732    -7.4586    -8.5328 C.ar    
  24 C24            6.4297    -6.8552    -6.2001 C.ar    
  25 C25            5.0918    -6.6046    -6.4248 C.ar    
  26 C26            4.5437    -6.7786    -7.6933 C.ar    
  27 C27            5.3220    -7.2006    -8.7341 C.ar    
  28 C28            7.6038    -8.1925   -10.7798 C.3     
  29 C29            7.2642    -9.6735   -10.9598 C.3     
  30 C30            5.9242    -9.9750   -10.2856 C.3     
  31 C31            7.1685    -9.9970   -12.4521 C.3     
  32 C32            8.3602   -10.5293   -10.3216 C.3     
  33 Br33           7.1652    -6.6164    -4.4744 Br      
  34 H34            1.0039     1.9031     0.0027 H       
  35 H35           -0.5459     1.8868    -0.8726 H       
  36 H36           -0.5289     1.8773     0.9072 H       
  37 H37            0.2319    -0.1594     2.1383 H       
  38 H38            0.7568    -1.6008     1.2356 H       
  39 H39            1.7647    -0.1336     1.2338 H       
  40 H40           -1.8677    -0.2163    -0.7464 H       
  41 H41            0.2907    -2.5517    -0.8390 H       
  42 H42            2.5116    -1.6187    -4.3946 H       
  43 H43            2.3489     0.7595    -3.7852 H       
  44 H44            2.6027    -3.4175    -4.8035 H       
  45 H45            1.6836    -7.4708    -3.8531 H       
  46 H46            0.5172    -6.7408    -1.8140 H       
  47 H47            0.3968    -4.3488    -1.2503 H       
  48 H48            2.4668    -6.8609    -6.0651 H       
  49 H49            2.8506    -5.1688    -6.4624 H       
  50 H50            3.4947    -6.5791    -7.8554 H       
  51 H51            4.8874    -7.3327    -9.7140 H       
  52 H52            6.8230    -7.5828   -11.2344 H       
  53 H53            8.5584    -7.9777   -11.2601 H       
  54 H54            5.1434    -9.3653   -10.7403 H       
  55 H55            5.6823   -11.0301   -10.4139 H       
  56 H56            5.9924    -9.7445    -9.2225 H       
  57 H57            8.1231    -9.7822   -12.9324 H       
  58 H58            6.9266   -11.0521   -12.5804 H       
  59 H59            6.3877    -9.3873   -12.9068 H       
  60 H60            8.4284   -10.2988    -9.2585 H       
  61 H61            8.1182   -11.5843   -10.4499 H       
  62 H62            9.3148   -10.3145   -10.8019 H       
@<TRIPOS>BOND
   1    1    2 1
   2    1   34 1
   3    1   35 1
   4    1   36 1
   5    2    3 1
   6    2    4 1
   7    2    5 1
   8    3   37 1
   9    3   38 1
  10    3   39 1
  11    4   40 1
  12    5    6 ar
  13    5   10 ar
  14    6    7 ar
  15    6   41 1
  16    7    8 ar
  17    7   11 1
  18    8    9 ar
  19    8   42 1
  20    9   10 ar
  21    9   43 1
  22   11   12 ar
  23   11   16 ar
  24   12   13 ar
  25   12   44 1
  26   13   14 ar
  27   13   17 1
  28   14   15 ar
  29   14   45 1
  30   15   16 ar
  31   15   46 1
  32   16   47 1
  33   17   18 1
  34   17   48 1
  35   17   49 1
  36   18   25 1
  37   19   20 1
  38   19   23 1
  39   19   28 1
  40   20   21 2
  41   21   22 1
  42   22   23 ar
  43   22   24 ar
  44   23   27 ar
  45   24   25 ar
  46   24   33 1
  47   25   26 ar
  48   26   27 ar
  49   26   50 1
  50   27   51 1
  51   28   29 1
  52   28   52 1
  53   28   53 1
  54   29   30 1
  55   29   31 1
  56   29   32 1
  57   30   54 1
  58   30   55 1
  59   30   56 1
  60   31   57 1
  61   31   58 1
  62   31   59 1
  63   32   60 1
  64   32   61 1
  65   32   62 1

#	End of record

