#	Name: ASD01120087
#	Creating user name:	WinNT
#	Creation time:	15. 06. 2019 18:58

#	Modifying user name:	WinNT
#	Modification time:	15. 06. 2019 18:58

#	Program:	/corina/corina34_cracker 3.40 0067  02.08.2006

@<TRIPOS>MOLECULE
ASD01120087
  55   59    0    0    0
SMALL
NO_CHARGES


@<TRIPOS>ATOM
   1 C1             0.8453     2.2849     0.4660 C.ar    
   2 C2             1.1040     0.9099     0.5528 C.ar    
   3 C3             0.0954    -0.0090     0.3645 C.ar    
   4 C4            -1.2014     0.4380     0.0835 C.ar    
   5 C5            -1.4553     1.8294    -0.0026 C.ar    
   6 C6            -0.4136     2.7428     0.1985 C.ar    
   7 N7            -2.2188    -0.4162    -0.1087 N.ar    
   8 C8            -3.4233     0.0324    -0.3709 C.ar    
   9 N9            -3.7073     1.3220    -0.4608 N.ar    
  10 C10           -2.7758     2.2507    -0.2884 C.ar    
  11 N11           -3.0864     3.5924    -0.3847 N.pl3   
  12 C12           -4.4149     3.9916    -0.5578 C.ar    
  13 C13           -5.4393     3.2686     0.0346 C.ar    
  14 C14           -6.7611     3.6706    -0.1404 C.ar    
  15 C15           -7.0471     4.7971    -0.9098 C.ar    
  16 C16           -6.0214     5.5114    -1.4968 C.ar    
  17 C17           -4.7092     5.1169    -1.3192 C.ar    
  18 C18           -7.8620     2.9015     0.4901 C.2     
  19 C19           -9.1610     3.2384     0.3590 C.2     
  20 S20          -10.1174     2.0659     1.2614 S.3     
  21 C21           -8.6936     1.2418     1.7250 C.2     
  22 N22           -7.6558     1.8197     1.2271 N.2     
  23 C23           -8.6580     0.0081     2.5897 C.3     
  24 O24            1.8575     3.1728     0.6559 O.3     
  25 C25            1.5309     4.5603     0.5546 C.3     
  26 O26            2.3633     0.4790     0.8251 O.3     
  27 C27            2.5908    -0.9310     0.7785 C.3     
  28 C28            4.0712    -1.2162     0.4709 C.3     
  29 C29            4.6265    -2.0078     1.6728 C.3     
  30 C30            3.3745    -2.6628     2.3074 C.3     
  31 C31            2.2981    -1.5593     2.1567 C.3     
  32 H32            0.3033    -1.0666     0.4327 H       
  33 H33           -0.6026     3.8041     0.1338 H       
  34 H34           -4.2188    -0.6826    -0.5204 H       
  35 H35           -2.3828     4.2581    -0.3322 H       
  36 H36           -5.2127     2.3962     0.6296 H       
  37 H37           -8.0712     5.1112    -1.0473 H       
  38 H38           -6.2453     6.3836    -2.0932 H       
  39 H39           -3.9106     5.6792    -1.7801 H       
  40 H40           -9.5467     4.0781    -0.2000 H       
  41 H41           -9.6745    -0.2702     2.8677 H       
  42 H42           -8.1956    -0.8098     2.0370 H       
  43 H43           -8.0780     0.2119     3.4898 H       
  44 H44            1.1403     4.7699    -0.4411 H       
  45 H45            0.7772     4.8115     1.3009 H       
  46 H46            2.4261     5.1578     0.7270 H       
  47 H47            1.9569    -1.3863     0.0176 H       
  48 H48            4.1558    -1.8105    -0.4389 H       
  49 H49            4.6162    -0.2791     0.3571 H       
  50 H50            5.3272    -2.7717     1.3356 H       
  51 H51            5.1069    -1.3353     2.3835 H       
  52 H52            3.0877    -3.5598     1.7586 H       
  53 H53            3.5490    -2.8912     3.3588 H       
  54 H54            2.4024    -0.8143     2.9455 H       
  55 H55            1.2994    -1.9959     2.1726 H       
@<TRIPOS>BOND
   1    1    2 ar
   2    1   24 1
   3    1    6 ar
   4    2    3 ar
   5    2   26 1
   6    3    4 ar
   7    3   32 1
   8    4    5 ar
   9    4    7 ar
  10    5    6 ar
  11    5   10 ar
  12    6   33 1
  13    7    8 ar
  14    8    9 ar
  15    8   34 1
  16    9   10 ar
  17   10   11 1
  18   11   12 1
  19   11   35 1
  20   12   13 ar
  21   12   17 ar
  22   13   14 ar
  23   13   36 1
  24   14   15 ar
  25   14   18 1
  26   15   16 ar
  27   15   37 1
  28   16   17 ar
  29   16   38 1
  30   17   39 1
  31   18   19 2
  32   18   22 1
  33   19   20 1
  34   19   40 1
  35   20   21 1
  36   21   22 2
  37   21   23 1
  38   23   41 1
  39   23   42 1
  40   23   43 1
  41   24   25 1
  42   25   44 1
  43   25   45 1
  44   25   46 1
  45   26   27 1
  46   27   28 1
  47   27   31 1
  48   27   47 1
  49   28   29 1
  50   28   48 1
  51   28   49 1
  52   29   30 1
  53   29   50 1
  54   29   51 1
  55   30   31 1
  56   30   52 1
  57   30   53 1
  58   31   54 1
  59   31   55 1

#	End of record

