#	Name: ASD09116208
#	Creating user name:	WinNT
#	Creation time:	15. 06. 2019 21:21

#	Modifying user name:	WinNT
#	Modification time:	15. 06. 2019 21:21

#	Program:	/corina/corina34_cracker 3.40 0067  02.08.2006

@<TRIPOS>MOLECULE
ASD09116208
  72   78    0    0    0
SMALL
NO_CHARGES


@<TRIPOS>ATOM
   1 N1            -0.5602     3.8752     0.5651 N.2     
   2 N2            -1.1030     5.0317     1.1478 N.pl3   
   3 C3             0.7391     4.0464     0.5134 C.2     
   4 N4             1.0423     5.2431     1.0298 N.2     
   5 C5            -0.0589     5.8502     1.4174 C.2     
   6 N6             1.6572     3.1285     0.0026 N.pl3   
   7 C7             3.0071     3.4744    -0.1009 C.ar    
   8 C8             3.9859     2.4934    -0.0059 C.ar    
   9 C9             5.6749     4.1605    -0.3074 C.ar    
  10 C10            4.7106     5.1308    -0.4067 C.ar    
  11 C11            3.3724     4.8001    -0.3048 C.ar    
  12 C12           -2.4524     5.2873     1.3988 C.ar    
  13 N13           -2.7991     6.1351     2.3557 N.ar    
  14 N14           -4.0265     6.3980     2.6333 N.ar    
  15 C15           -5.0238     5.8308     1.9738 C.ar    
  16 C16           -4.7532     4.9384     0.9325 C.ar    
  17 C17           -3.4370     4.6531     0.6369 C.ar    
  18 C18           -6.4387     6.0904     2.3272 C.ar    
  19 C19           -7.2999     5.0062     2.5033 C.ar    
  20 C20           -6.7590     3.6076     2.3853 C.3     
  21 C21           -6.5518     3.2120     0.9259 C.3     
  22 C22           -5.8864     4.3441     0.1478 C.3     
  23 C23           -6.9139     7.3882     2.4797 C.ar    
  24 C24           -8.2444     7.5974     2.7871 C.ar    
  25 C25           -9.0992     6.5210     2.9402 C.ar    
  26 C26           -8.6282     5.2272     2.7975 C.ar    
  27 N27           -0.1360     7.1024     1.9968 N.pl3   
  28 C28            5.3203     2.8372    -0.1092 C.ar    
  29 C29            7.1396     4.5299    -0.4206 C.3     
  30 C30            7.5433     5.3025     0.8375 C.3     
  31 C31            7.2308     6.7786     0.6907 C.3     
  32 C32            5.7511     7.1054     0.6535 C.3     
  33 C33            5.1060     6.5760    -0.6297 C.3     
  34 N34            7.8387     7.4979     1.8181 N.3     
  35 C35            9.3011     7.3111     1.8373 C.3     
  36 C36            9.9418     8.7144     1.7933 C.3     
  37 C37            8.8096     9.6323     2.3248 C.3     
  38 C38            7.5499     8.9458     1.7404 C.3     
  39 H39            1.3585     2.2502    -0.2807 H       
  40 H40            3.7041     1.4624     0.1490 H       
  41 H41            2.6156     5.5666    -0.3835 H       
  42 H42           -3.1770     3.9597    -0.1492 H       
  43 H43           -5.8051     3.5488     2.9096 H       
  44 H44           -7.4615     2.9135     2.8466 H       
  45 H45           -5.9193     2.3254     0.8807 H       
  46 H46           -7.5179     2.9860     0.4747 H       
  47 H47           -6.6244     5.1190    -0.0589 H       
  48 H48           -5.5035     3.9541    -0.7953 H       
  49 H49           -6.2461     8.2284     2.3589 H       
  50 H50           -8.6177     8.6036     2.9084 H       
  51 H51          -10.1402     6.6908     3.1723 H       
  52 H52           -9.3012     4.3911     2.9175 H       
  53 H53            0.6722     7.6162     2.1508 H       
  54 H54           -0.9984     7.4676     2.2496 H       
  55 H55            6.0835     2.0766    -0.0352 H       
  56 H56            7.7405     3.6242    -0.5029 H       
  57 H57            7.2927     5.1558    -1.2997 H       
  58 H58            6.9976     4.9042     1.6929 H       
  59 H59            8.6129     5.1779     1.0066 H       
  60 H60            7.6877     7.1386    -0.2311 H       
  61 H61            5.2619     6.6501     1.5146 H       
  62 H62            5.6218     8.1868     0.6995 H       
  63 H63            5.8197     6.6379    -1.4511 H       
  64 H64            4.2201     7.1660    -0.8648 H       
  65 H65            9.5973     6.7968     2.7515 H       
  66 H66            9.6127     6.7338     0.9668 H       
  67 H67           10.8137     8.7606     2.4459 H       
  68 H68           10.2091     8.9841     0.7716 H       
  69 H69            8.7850     9.6309     3.4145 H       
  70 H70            8.9159    10.6464     1.9394 H       
  71 H71            7.3997     9.2476     0.7038 H       
  72 H72            6.6724     9.1904     2.3388 H       
@<TRIPOS>BOND
   1    1    2 1
   2    1    3 2
   3    2   12 1
   4    2    5 1
   5    3    4 1
   6    3    6 1
   7    4    5 2
   8    5   27 1
   9    6    7 1
  10    6   39 1
  11    7    8 ar
  12    7   11 ar
  13    8   28 ar
  14    8   40 1
  15    9   10 ar
  16    9   29 1
  17    9   28 ar
  18   10   11 ar
  19   10   33 1
  20   11   41 1
  21   12   13 ar
  22   12   17 ar
  23   13   14 ar
  24   14   15 ar
  25   15   16 ar
  26   15   18 1
  27   16   17 ar
  28   16   22 1
  29   17   42 1
  30   18   19 ar
  31   18   23 ar
  32   19   20 1
  33   19   26 ar
  34   20   21 1
  35   20   43 1
  36   20   44 1
  37   21   22 1
  38   21   45 1
  39   21   46 1
  40   22   47 1
  41   22   48 1
  42   23   24 ar
  43   23   49 1
  44   24   25 ar
  45   24   50 1
  46   25   26 ar
  47   25   51 1
  48   26   52 1
  49   27   53 1
  50   27   54 1
  51   28   55 1
  52   29   30 1
  53   29   56 1
  54   29   57 1
  55   30   31 1
  56   30   58 1
  57   30   59 1
  58   31   32 1
  59   31   34 1
  60   31   60 1
  61   32   33 1
  62   32   61 1
  63   32   62 1
  64   33   63 1
  65   33   64 1
  66   34   35 1
  67   34   38 1
  68   35   36 1
  69   35   65 1
  70   35   66 1
  71   36   37 1
  72   36   67 1
  73   36   68 1
  74   37   38 1
  75   37   69 1
  76   37   70 1
  77   38   71 1
  78   38   72 1

#	End of record

