#	Name: ASD03330356
#	Creating user name:	WinNT
#	Creation time:	15. 06. 2019 20:37

#	Modifying user name:	WinNT
#	Modification time:	15. 06. 2019 20:37

#	Program:	/corina/corina34_cracker 3.40 0067  02.08.2006

@<TRIPOS>MOLECULE
ASD03330356
  64   68    0    0    0
SMALL
NO_CHARGES


@<TRIPOS>ATOM
   1 C1            -0.2485     1.6183    -0.4003 C.3     
   2 N2            -0.2234     0.1496    -0.3511 N.3     
   3 C3             0.2860    -0.4166    -1.6131 C.3     
   4 C4             1.5739     0.2880    -1.9535 C.2     
   5 N5             1.9699     1.4541    -1.3791 N.pl3   
   6 C6             1.1849     2.1638    -0.3651 C.3     
   7 C7             2.5355    -0.0706    -2.8404 C.2     
   8 N8             3.5050     0.8718    -2.7979 N.2     
   9 C9             3.1702     1.7908    -1.9199 C.2     
  10 C10            3.9663     2.9901    -1.5779 C.ar    
  11 C11            5.0144     3.3945    -2.4052 C.ar    
  12 C12            2.5259    -1.2704    -3.6959 C.2     
  13 O13            1.5919    -2.0476    -3.6429 O.2     
  14 C14            3.5425    -2.6994    -5.3876 C.3     
  15 N15            3.5521    -1.5066    -4.5371 N.am    
  16 C16           -1.5519    -0.3892    -0.0306 C.3     
  17 C17            5.7527     4.5141    -2.0810 C.ar    
  18 C18            5.4556     5.2352    -0.9384 C.ar    
  19 C19            4.4175     4.8394    -0.1139 C.ar    
  20 C20            3.6683     3.7247    -0.4299 C.ar    
  21 C21            4.4186    -2.4691    -6.6567 C.3     
  22 C22            4.6874    -3.4592    -3.2683 C.3     
  23 C23            4.2140    -3.8860    -4.6592 C.3     
  24 C24           -2.5176    -0.0799    -1.1763 C.3     
  25 C25            3.2440    -5.0645    -4.5529 C.3     
  26 C26            4.1260    -3.7042    -7.5624 C.3     
  27 C27            4.7974    -4.8908    -6.8340 C.3     
  28 C28            5.4326    -4.2610    -5.5568 C.3     
  29 C29            5.8376    -2.8460    -6.1019 C.3     
  30 C30            4.2791    -1.1006    -7.3264 C.3     
  31 H31           -0.7368     1.9417    -1.3196 H       
  32 H32           -0.8027     2.0002     0.4570 H       
  33 H33            0.4712    -1.4836    -1.4900 H       
  34 H34           -0.4422    -0.2578    -2.4085 H       
  35 H35            1.1777     3.2311    -0.5862 H       
  36 H36            1.6186     1.9948     0.6205 H       
  37 H37            5.2475     2.8321    -3.2973 H       
  38 H38            2.5215    -2.9543    -5.6718 H       
  39 H39            4.2970    -0.8868    -4.5794 H       
  40 H40           -1.4831    -1.4685     0.1053 H       
  41 H41           -1.9184     0.0700     0.8875 H       
  42 H42            6.5645     4.8279    -2.7204 H       
  43 H43            6.0366     6.1107    -0.6888 H       
  44 H44            4.1904     5.4066     0.7767 H       
  45 H45            2.8582     3.4167     0.2145 H       
  46 H46            3.8333    -3.1202    -2.6820 H       
  47 H47            5.1578    -4.3061    -2.7688 H       
  48 H48            5.4083    -2.6471    -3.3632 H       
  49 H49           -3.5034    -0.4797    -0.9385 H       
  50 H50           -2.5863     0.9994    -1.3122 H       
  51 H51           -2.1511    -0.5391    -2.0944 H       
  52 H52            2.4566    -4.8237    -3.8387 H       
  53 H53            2.8012    -5.2598    -5.5296 H       
  54 H54            3.7831    -5.9494    -4.2148 H       
  55 H55            3.0516    -3.8683    -7.6457 H       
  56 H56            4.5676    -3.5650    -8.5492 H       
  57 H57            4.0532    -5.6383    -6.5592 H       
  58 H58            5.5692    -5.3350    -7.4627 H       
  59 H59            6.2162    -4.8465    -5.0761 H       
  60 H60            6.5825    -2.9113    -6.8950 H       
  61 H61            6.1554    -2.1758    -5.3032 H       
  62 H62            4.5587    -0.3198    -6.6191 H       
  63 H63            4.9336    -1.0536    -8.1968 H       
  64 H64            3.2458    -0.9533    -7.6404 H       
@<TRIPOS>BOND
   1    1    2 1
   2    1    6 1
   3    1   31 1
   4    1   32 1
   5    2    3 1
   6    2   16 1
   7    3    4 1
   8    3   33 1
   9    3   34 1
  10    4    5 1
  11    4    7 2
  12    5    6 1
  13    5    9 1
  14    6   35 1
  15    6   36 1
  16    7    8 1
  17    7   12 1
  18    8    9 2
  19    9   10 1
  20   10   11 ar
  21   10   20 ar
  22   11   17 ar
  23   11   37 1
  24   12   13 2
  25   12   15 am
  26   14   21 1
  27   14   15 1
  28   14   23 1
  29   14   38 1
  30   15   39 1
  31   16   24 1
  32   16   40 1
  33   16   41 1
  34   17   18 ar
  35   17   42 1
  36   18   19 ar
  37   18   43 1
  38   19   20 ar
  39   19   44 1
  40   20   45 1
  41   21   26 1
  42   21   30 1
  43   21   29 1
  44   22   23 1
  45   22   46 1
  46   22   47 1
  47   22   48 1
  48   23   25 1
  49   23   28 1
  50   24   49 1
  51   24   50 1
  52   24   51 1
  53   25   52 1
  54   25   53 1
  55   25   54 1
  56   26   27 1
  57   26   55 1
  58   26   56 1
  59   27   28 1
  60   27   57 1
  61   27   58 1
  62   28   29 1
  63   28   59 1
  64   29   60 1
  65   29   61 1
  66   30   62 1
  67   30   63 1
  68   30   64 1

#	End of record

