#	Name: ASD01140622
#	Creating user name:	WinNT
#	Creation time:	15. 06. 2019 19:01

#	Modifying user name:	WinNT
#	Modification time:	15. 06. 2019 19:01

#	Program:	/corina/corina34_cracker 3.40 0067  02.08.2006

@<TRIPOS>MOLECULE
ASD01140622
  41   42    0    0    0
SMALL
NO_CHARGES


@<TRIPOS>ATOM
   1 S1             1.1612     3.8015     0.0446 S.2     
   2 S2             2.0857    -9.5246     1.4918 S.2     
   3 O3            -0.8125    -0.6168    -0.1974 O.2     
   4 O4             3.8913    -0.1983     0.1996 O.2     
   5 O5             1.9895    -5.5727     4.3112 O.2     
   6 O6             1.6453    -5.0414    -0.3200 O.2     
   7 N7             0.1932     1.3742    -0.0789 N.am    
   8 N8             2.5466     1.5836     0.1201 N.am    
   9 N9             2.0250    -7.3342     2.9395 N.am    
  10 N10            1.8507    -7.0658     0.5995 N.am    
  11 C11            1.5620    -0.6597    -0.0010 C.3     
  12 C12            0.2118     0.0246    -0.1012 C.2     
  13 C13            2.7688     0.2521     0.1150 C.2     
  14 C14            1.5405    -1.5653     1.2034 C.2     
  15 C15            1.3144     2.0965     0.0271 C.2     
  16 C16            1.8043    -5.1013     2.0202 C.2     
  17 C17            1.7377    -2.8818     1.0550 C.2     
  18 C18            3.6888     2.4943     0.2313 C.3     
  19 C19           -1.0927     2.0689    -0.1799 C.3     
  20 C20            1.7176    -3.7305     2.1839 C.2     
  21 C21            1.9458    -6.0085     3.1764 C.2     
  22 C22            1.7600    -5.7223     0.6814 C.2     
  23 C23            1.9778    -7.8280     1.6945 C.2     
  24 C24            2.1720    -8.2552     4.0693 C.3     
  25 C25            1.8087    -7.7066    -0.7173 C.3     
  26 H26            1.6925    -1.2837    -0.8852 H       
  27 H27            1.3661    -1.1527     2.1861 H       
  28 H28            1.9121    -3.2943     0.0723 H       
  29 H29           -1.5018     2.2230     0.8186 H       
  30 H30           -0.9473     3.0336    -0.6659 H       
  31 H31           -1.7857     1.4668    -0.7676 H       
  32 H32            4.0572     2.7383    -0.7651 H       
  33 H33            3.3771     3.4080     0.7372 H       
  34 H34            4.4819     2.0141     0.8044 H       
  35 H35            1.6344    -3.3092     3.1749 H       
  36 H36            2.1970    -7.6879     4.9997 H       
  37 H37            1.3287    -8.9456     4.0873 H       
  38 H38            3.0995    -8.8174     3.9615 H       
  39 H39            1.7027    -6.9442    -1.4891 H       
  40 H40            2.7319    -8.2627    -0.8803 H       
  41 H41            0.9604    -8.3895    -0.7622 H       
@<TRIPOS>BOND
   1    1   15 2
   2    2   23 2
   3    3   12 2
   4    4   13 2
   5    5   21 2
   6    6   22 2
   7    7   12 am
   8    7   15 am
   9    7   19 1
  10    8   13 am
  11    8   15 am
  12    8   18 1
  13    9   21 am
  14    9   23 am
  15    9   24 1
  16   10   22 am
  17   10   23 am
  18   10   25 1
  19   11   12 1
  20   11   13 1
  21   11   14 1
  22   11   26 1
  23   14   17 2
  24   14   27 1
  25   16   20 2
  26   16   21 1
  27   16   22 1
  28   17   20 1
  29   17   28 1
  30   18   32 1
  31   18   33 1
  32   18   34 1
  33   19   29 1
  34   19   30 1
  35   19   31 1
  36   20   35 1
  37   24   36 1
  38   24   37 1
  39   24   38 1
  40   25   39 1
  41   25   40 1
  42   25   41 1

#	End of record

