#	Name: ASD00570002
#	Creating user name:	WinNT
#	Creation time:	15. 06. 2019 18:36

#	Modifying user name:	WinNT
#	Modification time:	15. 06. 2019 18:36

#	Program:	/corina/corina34_cracker 3.40 0067  02.08.2006

@<TRIPOS>MOLECULE
ASD00570002
  52   54    0    0    0
SMALL
NO_CHARGES


@<TRIPOS>ATOM
   1 C1            -2.1472     0.1056     0.8825 C.ar    
   2 C2            -1.3274    -0.9599     0.5737 C.ar    
   3 C3             0.0114    -0.7485     0.2944 C.ar    
   4 C4             0.5366     0.5310     0.3228 C.ar    
   5 C5            -0.2727     1.6056     0.6297 C.ar    
   6 C6            -1.6237     1.3993     0.9124 C.ar    
   7 C7             0.9012    -1.9173    -0.0417 C.3     
   8 C8             2.3128    -1.4124    -0.3471 C.3     
   9 C9             0.9498    -2.8796     1.1468 C.3     
  10 C10            0.3445    -2.6467    -1.2660 C.3     
  11 C11           -2.4968     2.5461     1.2416 C.2     
  12 N12           -1.9885     3.7940     1.2693 N.am    
  13 O13           -3.6732     2.3635     1.4874 O.2     
  14 N14           -2.8158     4.8807     1.5813 N.am    
  15 C15           -2.3075     6.1286     1.6089 C.2     
  16 N16           -1.0032     6.3311     1.3364 N.am    
  17 O17           -3.0255     7.0717     1.8797 O.2     
  18 C18           -0.4497     7.6051     1.4793 C.ar    
  19 C19            0.7152     7.9591     0.7662 C.ar    
  20 C20            1.2593     9.2574     0.9267 C.ar    
  21 C21            0.6308    10.1685     1.7922 C.ar    
  22 C22           -0.4922     9.8000     2.4683 C.ar    
  23 C23           -1.0395     8.5298     2.3137 C.ar    
  24 C24            1.3449     7.0497    -0.0981 C.ar    
  25 C25            2.4679     7.4255    -0.7699 C.ar    
  26 C26            3.0041     8.7020    -0.6125 C.ar    
  27 C27            2.4199     9.6099     0.2161 C.ar    
  28 N28           -1.8807    -2.3323     0.5415 N.pl3   
  29 O29           -3.0215    -2.5380     0.9155 O.2     
  30 O30           -1.1953    -3.2561     0.1409 O.2     
  31 H31           -3.1928    -0.0602     1.0962 H       
  32 H32            1.5824     0.6892     0.1045 H       
  33 H33            0.1386     2.6039     0.6519 H       
  34 H34            2.7095    -0.8928     0.5251 H       
  35 H35            2.9565    -2.2578    -0.5902 H       
  36 H36            2.2782    -0.7269    -1.1939 H       
  37 H37           -0.0338    -2.9303     1.6137 H       
  38 H38            1.2387    -3.8716     0.7996 H       
  39 H39            1.6792    -2.5225     1.8739 H       
  40 H40            0.8020    -2.2425    -2.1690 H       
  41 H41            0.5703    -3.7103    -1.1891 H       
  42 H42           -0.7356    -2.5070    -1.3122 H       
  43 H43           -1.0497     3.9398     1.0732 H       
  44 H44           -3.7545     4.7350     1.7774 H       
  45 H45           -0.4489     5.5919     1.0410 H       
  46 H46            1.0383    11.1603     1.9213 H       
  47 H47           -0.9689    10.5066     3.1315 H       
  48 H48           -1.9310     8.2624     2.8616 H       
  49 H49            0.9408     6.0568    -0.2291 H       
  50 H50            2.9504     6.7238    -1.4342 H       
  51 H51            3.8963     8.9751    -1.1565 H       
  52 H52            2.8466    10.5957     0.3284 H       
@<TRIPOS>BOND
   1    1    2 ar
   2    1    6 ar
   3    1   31 1
   4    2    3 ar
   5    2   28 1
   6    3    4 ar
   7    3    7 1
   8    4    5 ar
   9    4   32 1
  10    5    6 ar
  11    5   33 1
  12    6   11 1
  13    7    8 1
  14    7    9 1
  15    7   10 1
  16    8   34 1
  17    8   35 1
  18    8   36 1
  19    9   37 1
  20    9   38 1
  21    9   39 1
  22   10   40 1
  23   10   41 1
  24   10   42 1
  25   11   12 am
  26   11   13 2
  27   12   14 1
  28   12   43 1
  29   14   15 am
  30   14   44 1
  31   15   16 am
  32   15   17 2
  33   16   18 1
  34   16   45 1
  35   18   19 ar
  36   18   23 ar
  37   19   20 ar
  38   19   24 ar
  39   20   21 ar
  40   20   27 ar
  41   21   22 ar
  42   21   46 1
  43   22   23 ar
  44   22   47 1
  45   23   48 1
  46   24   25 ar
  47   24   49 1
  48   25   26 ar
  49   25   50 1
  50   26   27 ar
  51   26   51 1
  52   27   52 1
  53   28   29 2
  54   28   30 2

#	End of record

