#	Name: ASD03082297
#	Creating user name:	WinNT
#	Creation time:	15. 06. 2019 20:27

#	Modifying user name:	WinNT
#	Modification time:	15. 06. 2019 20:27

#	Program:	/corina/corina34_cracker 3.40 0067  02.08.2006

@<TRIPOS>MOLECULE
ASD03082297
  43   45    0    0    0
SMALL
NO_CHARGES


@<TRIPOS>ATOM
   1 N1             0.0244     1.4292    -0.1371 N.pl3   
   2 N2            -0.0187     0.0262    -0.1786 N.2     
   3 C3             1.2021    -0.4010     0.0505 C.2     
   4 N4             2.0035     0.6494     0.2322 N.2     
   5 C5             1.3081     1.7635     0.1222 C.2     
   6 N6             1.5972    -1.7394     0.0964 N.pl3   
   7 C7             2.9498    -2.0645     0.2319 C.ar    
   8 C8             3.3195    -3.2802     0.7965 C.ar    
   9 C9             4.6555    -3.6065     0.9327 C.ar    
  10 C10            5.6321    -2.7280     0.5094 C.ar    
  11 C11            5.2718    -1.5046    -0.0594 C.ar    
  12 C12            3.9228    -1.1773    -0.2018 C.ar    
  13 C13            1.8392     3.1382     0.2587 C.ar    
  14 C14           -1.0981     2.3484    -0.3409 C.3     
  15 C15            3.2083     3.3961     0.1299 C.ar    
  16 C16            3.6603     4.6929     0.2641 C.ar    
  17 N17            2.8213     5.6806     0.5100 N.ar    
  18 C18            1.5237     5.4811     0.6386 C.ar    
  19 C19            0.9855     4.2167     0.5141 C.ar    
  20 C20           -1.7826     2.6051     0.9769 C.2     
  21 N21           -2.8498     3.4263     1.0331 N.am    
  22 C22           -3.5154     3.6759     2.3142 C.3     
  23 O23           -1.3733     2.0727     1.9868 O.2     
  24 C24           -3.3444     4.0694    -0.1867 C.3     
  25 C25            6.2831    -0.5913    -0.4996 C.1     
  26 N26            7.0853     0.1333    -0.8487 N.1     
  27 H27            0.9330    -2.4436     0.0342 H       
  28 H28            2.5599    -3.9717     1.1300 H       
  29 H29            4.9363    -4.5522     1.3724 H       
  30 H30            6.6751    -2.9865     0.6183 H       
  31 H31            3.6378    -0.2345    -0.6447 H       
  32 H32           -0.7278     3.2895    -0.7474 H       
  33 H33           -1.8083     1.9054    -1.0390 H       
  34 H34            3.9009     2.5922    -0.0710 H       
  35 H35            4.7154     4.9019     0.1668 H       
  36 H36            0.8733     6.3194     0.8402 H       
  37 H37           -0.0779     4.0607     0.6206 H       
  38 H38           -3.0566     4.5369     2.8003 H       
  39 H39           -4.5726     3.8769     2.1413 H       
  40 H40           -3.4120     2.7996     2.9541 H       
  41 H41           -4.0908     3.4298    -0.6577 H       
  42 H42           -3.7954     5.0291     0.0657 H       
  43 H43           -2.5148     4.2278    -0.8758 H       
@<TRIPOS>BOND
   1    1    2 1
   2    1    5 1
   3    1   14 1
   4    2    3 2
   5    3    4 1
   6    3    6 1
   7    4    5 2
   8    5   13 1
   9    6    7 1
  10    6   27 1
  11    7    8 ar
  12    7   12 ar
  13    8    9 ar
  14    8   28 1
  15    9   10 ar
  16    9   29 1
  17   10   11 ar
  18   10   30 1
  19   11   12 ar
  20   11   25 1
  21   12   31 1
  22   13   15 ar
  23   13   19 ar
  24   14   20 1
  25   14   32 1
  26   14   33 1
  27   15   16 ar
  28   15   34 1
  29   16   17 ar
  30   16   35 1
  31   17   18 ar
  32   18   19 ar
  33   18   36 1
  34   19   37 1
  35   20   21 am
  36   20   23 2
  37   21   22 1
  38   21   24 1
  39   22   38 1
  40   22   39 1
  41   22   40 1
  42   24   41 1
  43   24   42 1
  44   24   43 1
  45   25   26 3

#	End of record

