#	Name: ASD01940599
#	Creating user name:	WinNT
#	Creation time:	15. 06. 2019 20:12

#	Modifying user name:	WinNT
#	Modification time:	15. 06. 2019 20:12

#	Program:	/corina/corina34_cracker 3.40 0067  02.08.2006

@<TRIPOS>MOLECULE
ASD01940599
  49   51    0    0    0
SMALL
NO_CHARGES


@<TRIPOS>ATOM
   1 C1             0.5607     1.5844     0.0259 C.ar    
   2 C2             0.2489     0.2322     0.2482 C.ar    
   3 C3             1.2747    -0.6529     0.5458 C.ar    
   4 N4             2.5248    -0.2431     0.6217 N.ar    
   5 C5             2.8666     1.0123     0.4218 C.ar    
   6 C6             1.9093     1.9740     0.1175 C.ar    
   7 N7             2.2785     3.2968    -0.0925 N.pl3   
   8 C8             3.4739     3.7835     0.4471 C.ar    
   9 C9            -0.4925     2.5634    -0.2993 C.2     
  10 O10           -1.0586     3.1662     0.5922 O.2     
  11 N11           -0.8278     2.7903    -1.5848 N.am    
  12 O12           -1.0347    -0.2004     0.1734 O.3     
  13 C13           -1.2695    -1.5303     0.3235 C.ar    
  14 C14            4.0487     3.1555     1.5440 C.ar    
  15 C15            5.2293     3.6379     2.0746 C.ar    
  16 C16            5.8399     4.7460     1.5152 C.ar    
  17 C17            5.2709     5.3754     0.4226 C.ar    
  18 C18            4.0923     4.8941    -0.1174 C.ar    
  19 I19            7.6300     5.4731     2.3250 I       
  20 F20            3.5394     5.5053    -1.1879 F       
  21 C21           -1.2718    -2.0957     1.5894 C.ar    
  22 C22           -1.5124    -3.4543     1.7392 C.ar    
  23 C23           -1.7502    -4.2434     0.6202 C.ar    
  24 C24           -1.7465    -3.6764    -0.6392 C.ar    
  25 C25           -1.5128    -2.3225    -0.7899 C.ar    
  26 N26           -1.5152    -4.0278     3.0127 N.am    
  27 S27           -2.7903    -3.7652     4.0362 S.o2    
  28 C28           -4.1931    -4.5871     3.2317 C.3     
  29 C29           -5.4699    -4.3144     4.0296 C.3     
  30 O30           -2.4290    -4.4486     5.2286 O.2     
  31 O31           -2.9647    -2.3550     4.0242 O.2     
  32 H32            1.0452    -1.6941     0.7182 H       
  33 H33            3.9051     1.2994     0.4952 H       
  34 H34            1.7075     3.8829    -0.6133 H       
  35 H35           -0.3763     2.3095    -2.2960 H       
  36 H36           -1.5208     3.4345    -1.7988 H       
  37 H37            3.5728     2.2907     1.9823 H       
  38 H38            5.6763     3.1493     2.9278 H       
  39 H39            5.7497     6.2405    -0.0117 H       
  40 H40           -1.0864    -1.4801     2.4573 H       
  41 H41           -1.9375    -5.3008     0.7354 H       
  42 H42           -1.9311    -4.2913    -1.5077 H       
  43 H43           -1.5153    -1.8812    -1.7756 H       
  44 H44           -0.7702    -4.5798     3.2976 H       
  45 H45           -4.3082    -4.2011     2.2189 H       
  46 H46           -4.0114    -5.6611     3.1928 H       
  47 H47           -5.3548    -4.7004     5.0424 H       
  48 H48           -5.6516    -3.2404     4.0685 H       
  49 H49           -6.3128    -4.8082     3.5462 H       
@<TRIPOS>BOND
   1    1    2 ar
   2    1    6 ar
   3    1    9 1
   4    2    3 ar
   5    2   12 1
   6    3    4 ar
   7    3   32 1
   8    4    5 ar
   9    5    6 ar
  10    5   33 1
  11    6    7 1
  12    7    8 1
  13    7   34 1
  14    8   14 ar
  15    8   18 ar
  16    9   10 2
  17    9   11 am
  18   11   35 1
  19   11   36 1
  20   12   13 1
  21   13   21 ar
  22   13   25 ar
  23   14   15 ar
  24   14   37 1
  25   15   16 ar
  26   15   38 1
  27   16   17 ar
  28   16   19 1
  29   17   18 ar
  30   17   39 1
  31   18   20 1
  32   21   22 ar
  33   21   40 1
  34   22   23 ar
  35   22   26 1
  36   23   24 ar
  37   23   41 1
  38   24   25 ar
  39   24   42 1
  40   25   43 1
  41   26   27 am
  42   26   44 1
  43   27   28 1
  44   27   30 2
  45   27   31 2
  46   28   29 1
  47   28   45 1
  48   28   46 1
  49   29   47 1
  50   29   48 1
  51   29   49 1

#	End of record

