#	Name: ASD05420032
#	Creating user name:	WinNT
#	Creation time:	15. 06. 2019 20:59

#	Modifying user name:	WinNT
#	Modification time:	15. 06. 2019 20:59

#	Program:	/corina/corina34_cracker 3.40 0067  02.08.2006

@<TRIPOS>MOLECULE
ASD05420032
  39   40    0    0    0
SMALL
NO_CHARGES


@<TRIPOS>ATOM
   1 C1            -0.0481     1.4743     0.0416 C.ar    
   2 C2            -0.0401     0.0898     0.0484 C.ar    
   3 C3             1.1636    -0.5945     0.0413 C.ar    
   4 C4             2.3554     0.1050     0.0274 C.ar    
   5 C5             2.3461     1.4874     0.0207 C.ar    
   6 C6             1.1449     2.1717     0.0278 C.ar    
   7 F7            -1.2057    -0.5930     0.0623 F       
   8 C8             3.6464     2.2491     0.0061 C.3     
   9 N9             4.0562     2.4891    -1.3797 N.pl3   
  10 C10            5.2352     3.1796    -1.6474 C.ar    
  11 N11            5.5982     3.3922    -2.9037 N.ar    
  12 C12            6.7109     4.0444    -3.2035 C.ar    
  13 C13            7.5421     4.5319    -2.1950 C.ar    
  14 C14            7.1882     4.3247    -0.8671 C.ar    
  15 C15            6.0135     3.6422    -0.5940 C.ar    
  16 N16            7.0545     4.2450    -4.5373 N.pl3   
  17 N17            8.7218     5.2229    -2.5174 N.am    
  18 C18            9.7471     5.2503    -1.6430 C.2     
  19 O19            9.6230     4.7444    -0.5451 O.2     
  20 O20           10.9090     5.8384    -1.9860 O.3     
  21 C21           13.2022     6.5387    -1.5604 C.3     
  22 C22           11.9697     5.8305    -0.9944 C.3     
  23 H23           -0.9865     2.0091     0.0426 H       
  24 H24            1.1711    -1.6744     0.0469 H       
  25 H25            3.2944    -0.4285     0.0223 H       
  26 H26            1.1388     3.2517     0.0225 H       
  27 H27            3.5144     3.2032     0.5164 H       
  28 H28            4.4140     1.6673     0.5165 H       
  29 H29            3.5062     2.1669    -2.1109 H       
  30 H30            7.8129     4.6910    -0.0658 H       
  31 H31            5.7103     3.4649     0.4273 H       
  32 H32            6.4799     3.9077    -5.2422 H       
  33 H33            7.8686     4.7222    -4.7620 H       
  34 H34            8.7986     5.6803    -3.3693 H       
  35 H35           13.9984     6.5328    -0.8161 H       
  36 H36           13.5395     6.0196    -2.4575 H       
  37 H37           12.9466     7.5683    -1.8109 H       
  38 H38           11.6323     6.3496    -0.0973 H       
  39 H39           12.2253     4.8009    -0.7440 H       
@<TRIPOS>BOND
   1    1    2 ar
   2    1    6 ar
   3    1   23 1
   4    2    3 ar
   5    2    7 1
   6    3    4 ar
   7    3   24 1
   8    4    5 ar
   9    4   25 1
  10    5    6 ar
  11    5    8 1
  12    6   26 1
  13    8    9 1
  14    8   27 1
  15    8   28 1
  16    9   10 1
  17    9   29 1
  18   10   11 ar
  19   10   15 ar
  20   11   12 ar
  21   12   13 ar
  22   12   16 1
  23   13   14 ar
  24   13   17 1
  25   14   15 ar
  26   14   30 1
  27   15   31 1
  28   16   32 1
  29   16   33 1
  30   17   18 am
  31   17   34 1
  32   18   19 2
  33   18   20 1
  34   20   22 1
  35   21   22 1
  36   21   35 1
  37   21   36 1
  38   21   37 1
  39   22   38 1
  40   22   39 1

#	End of record

