#	Name: ASD00190053
#	Creating user name:	WinNT
#	Creation time:	15. 06. 2019 18:33

#	Modifying user name:	WinNT
#	Modification time:	15. 06. 2019 18:33

#	Program:	/corina/corina34_cracker 3.40 0067  02.08.2006

@<TRIPOS>MOLECULE
ASD00190053
  56   62    0    0    0
SMALL
NO_CHARGES


@<TRIPOS>ATOM
   1 C1            -0.0154     1.3889     0.0329 C.ar    
   2 C2             0.0026    -0.0011     0.0114 C.ar    
   3 C3             1.1801    -0.6877    -0.0107 C.ar    
   4 C4             2.3964     0.0123    -0.0120 C.ar    
   5 C5             2.3719     1.4268     0.0100 C.ar    
   6 C6             1.1497     2.1010     0.0324 C.ar    
   7 N7             3.5674    -0.6415    -0.0331 N.ar    
   8 C8             4.7273    -0.0214    -0.0346 C.ar    
   9 C9             4.8189     1.3796    -0.0140 C.ar    
  10 C10            3.6478     2.1440     0.0083 C.ar    
  11 N11            5.8586     2.2833    -0.0107 N.pl3   
  12 C12            5.3154     3.5207     0.0131 C.2     
  13 N13            4.0133     3.4342     0.0242 N.2     
  14 N14            5.8931    -0.7726    -0.0567 N.pl3   
  15 C15            5.8289    -2.1658     0.0424 C.ar    
  16 C16            6.7403    -2.9548    -0.6470 C.ar    
  17 C17            6.6743    -4.3319    -0.5470 C.ar    
  18 C18            5.7003    -4.9240     0.2393 C.ar    
  19 C19            4.7913    -4.1392     0.9270 C.ar    
  20 C20            4.8568    -2.7629     0.8353 C.ar    
  21 Cl21           5.6190    -6.6538     0.3622 Cl      
  22 Cl22           7.8129    -5.3197    -1.4082 Cl      
  23 C23            6.0973     4.8090     0.0252 C.3     
  24 C24            5.1673     5.9733    -0.3219 C.3     
  25 C25            5.9611     7.2812    -0.3097 C.3     
  26 C26            6.5580     7.5025     1.0816 C.3     
  27 C27            7.4880     6.3382     1.4286 C.3     
  28 C28            6.6942     5.0303     1.4164 C.3     
  29 C29            7.2242     4.7313    -1.0068 C.3     
  30 C30            8.0179     6.0392    -0.9946 C.3     
  31 C31            8.6149     6.2606     0.3966 C.3     
  32 C32            7.0879     7.2035    -1.3417 C.3     
  33 H33           -0.9608     1.9110     0.0457 H       
  34 H34           -0.9304    -0.5451     0.0127 H       
  35 H35            1.1769    -1.7675    -0.0269 H       
  36 H36            1.1258     3.1806     0.0496 H       
  37 H37            6.8050     2.0709    -0.0226 H       
  38 H38            6.7528    -0.3315    -0.1410 H       
  39 H39            7.4995    -2.4930    -1.2608 H       
  40 H40            4.0324    -4.6035     1.5392 H       
  41 H41            4.1472    -2.1512     1.3727 H       
  42 H42            4.7420     5.8156    -1.3130 H       
  43 H43            4.3645     6.0286     0.4133 H       
  44 H44            5.2985     8.1106    -0.5569 H       
  45 H45            7.1235     8.4343     1.0903 H       
  46 H46            5.7552     7.5579     1.8168 H       
  47 H47            7.9133     6.4959     2.4198 H       
  48 H48            5.8914     5.0857     2.1516 H       
  49 H49            7.3568     4.2009     1.6637 H       
  50 H50            7.8867     3.9019    -0.7596 H       
  51 H51            6.7989     4.5736    -1.9980 H       
  52 H52            8.8207     5.9839    -1.7298 H       
  53 H53            9.1804     7.1923     0.4053 H       
  54 H54            9.2774     5.4311     0.6439 H       
  55 H55            6.6627     7.0458    -2.3328 H       
  56 H56            7.6534     8.1353    -1.3330 H       
@<TRIPOS>BOND
   1    1    2 ar
   2    1    6 ar
   3    1   33 1
   4    2    3 ar
   5    2   34 1
   6    3    4 ar
   7    3   35 1
   8    4    5 ar
   9    4    7 ar
  10    5    6 ar
  11    5   10 ar
  12    6   36 1
  13    7    8 ar
  14    8    9 ar
  15    8   14 1
  16    9   10 ar
  17    9   11 1
  18   10   13 1
  19   11   12 1
  20   11   37 1
  21   12   13 2
  22   12   23 1
  23   14   15 1
  24   14   38 1
  25   15   16 ar
  26   15   20 ar
  27   16   17 ar
  28   16   39 1
  29   17   18 ar
  30   17   22 1
  31   18   19 ar
  32   18   21 1
  33   19   20 ar
  34   19   40 1
  35   20   41 1
  36   23   24 1
  37   23   29 1
  38   23   28 1
  39   24   25 1
  40   24   42 1
  41   24   43 1
  42   25   26 1
  43   25   32 1
  44   25   44 1
  45   26   27 1
  46   26   45 1
  47   26   46 1
  48   27   28 1
  49   27   31 1
  50   27   47 1
  51   28   48 1
  52   28   49 1
  53   29   30 1
  54   29   50 1
  55   29   51 1
  56   30   31 1
  57   30   32 1
  58   30   52 1
  59   31   53 1
  60   31   54 1
  61   32   55 1
  62   32   56 1

#	End of record

