#	Name: ASD01940044
#	Creating user name:	WinNT
#	Creation time:	15. 06. 2019 20:11

#	Modifying user name:	WinNT
#	Modification time:	15. 06. 2019 20:11

#	Program:	/corina/corina34_cracker 3.40 0067  02.08.2006

@<TRIPOS>MOLECULE
ASD01940044
  54   57    0    0    0
SMALL
NO_CHARGES


@<TRIPOS>ATOM
   1 C1             0.0237     1.4167     0.4915 C.ar    
   2 C2            -0.0928     0.1578    -0.0836 C.ar    
   3 C3            -1.2459    -0.5797     0.0979 C.ar    
   4 C4            -2.2882    -0.0634     0.8542 C.ar    
   5 C5            -2.1728     1.1943     1.4287 C.ar    
   6 C6            -1.0179     1.9305     1.2532 C.ar    
   7 N7             1.1922     2.1646     0.3083 N.pl3   
   8 C8             1.1229     3.5425     0.2078 C.2     
   9 C9             2.1828     4.4370     0.1661 C.2     
  10 C10            1.7847     5.7707     0.0609 C.2     
  11 N11            0.5074     5.9997     0.0165 N.2     
  12 S12           -0.2952     4.5097     0.1004 S.3     
  13 O13            2.6907     6.7814     0.0078 O.3     
  14 C14            3.5929     4.0193     0.2274 C.2     
  15 N15            4.2797     3.7370    -0.9350 N.pl3   
  16 N16            4.1941     3.9159     1.3832 N.2     
  17 N17            5.5539     3.2485    -0.8739 N.3     
  18 O18           -3.4235    -0.7900     1.0322 O.3     
  19 C19           -3.3605    -1.8862     1.8330 C.ar    
  20 C20           -2.1939    -2.1746     2.5251 C.ar    
  21 C21           -2.1323    -3.2908     3.3393 C.ar    
  22 C22           -3.2331    -4.1196     3.4632 C.ar    
  23 C23           -4.4662    -2.7165     1.9640 C.ar    
  24 C24           -4.3974    -3.8344     2.7738 C.ar    
  25 Cl25          -0.6723    -3.6525     4.2061 Cl      
  26 Cl26          -5.9308    -2.3547     1.1052 Cl      
  27 C27            6.4805     4.0974    -1.6358 C.3     
  28 C28            7.9058     3.5626    -1.4771 C.3     
  29 N29            7.9599     2.1722    -1.9501 N.3     
  30 C30            7.0334     1.3233    -1.1882 C.3     
  31 C31            5.6081     1.8581    -1.3468 C.3     
  32 C32            9.3302     1.6469    -1.8844 C.3     
  33 H33            0.7181    -0.2440    -0.6730 H       
  34 H34           -1.3367    -1.5586    -0.3492 H       
  35 H35           -2.9847     1.5957     2.0170 H       
  36 H36           -0.9280     2.9093     1.7007 H       
  37 H37            2.0508     1.7168     0.2519 H       
  38 H38            2.9725     7.0104    -0.8884 H       
  39 H39            3.8580     3.8854    -1.7958 H       
  40 H40            5.1419     3.7130     1.4205 H       
  41 H41           -1.3341    -1.5283     2.4281 H       
  42 H42           -3.1830    -4.9910     4.0993 H       
  43 H43           -5.2551    -4.4834     2.8716 H       
  44 H44            6.2025     4.0846    -2.6896 H       
  45 H45            6.4314     5.1189    -1.2588 H       
  46 H46            8.5909     4.1735    -2.0648 H       
  47 H47            8.1937     3.6008    -0.4266 H       
  48 H48            7.0825     0.3018    -1.5652 H       
  49 H49            7.3114     1.3361    -0.1343 H       
  50 H50            4.9229     1.2472    -0.7592 H       
  51 H51            5.3202     1.8199    -2.3974 H       
  52 H52            9.6828     1.6794    -0.8535 H       
  53 H53            9.3418     0.6166    -2.2400 H       
  54 H54            9.9829     2.2548    -2.5109 H       
@<TRIPOS>BOND
   1    1    2 ar
   2    1    7 1
   3    1    6 ar
   4    2    3 ar
   5    2   33 1
   6    3    4 ar
   7    3   34 1
   8    4    5 ar
   9    4   18 1
  10    5    6 ar
  11    5   35 1
  12    6   36 1
  13    7    8 1
  14    7   37 1
  15    8    9 2
  16    8   12 1
  17    9   10 1
  18    9   14 1
  19   10   11 2
  20   10   13 1
  21   11   12 1
  22   13   38 1
  23   14   15 1
  24   14   16 2
  25   15   17 1
  26   15   39 1
  27   16   40 1
  28   17   27 1
  29   17   31 1
  30   18   19 1
  31   19   20 ar
  32   19   23 ar
  33   20   21 ar
  34   20   41 1
  35   21   22 ar
  36   21   25 1
  37   22   24 ar
  38   22   42 1
  39   23   26 1
  40   23   24 ar
  41   24   43 1
  42   27   28 1
  43   27   44 1
  44   27   45 1
  45   28   29 1
  46   28   46 1
  47   28   47 1
  48   29   30 1
  49   29   32 1
  50   30   31 1
  51   30   48 1
  52   30   49 1
  53   31   50 1
  54   31   51 1
  55   32   52 1
  56   32   53 1
  57   32   54 1

#	End of record

