#	Name: ASD01230150
#	Creating user name:	WinNT
#	Creation time:	15. 06. 2019 19:11

#	Modifying user name:	WinNT
#	Modification time:	15. 06. 2019 19:11

#	Program:	/corina/corina34_cracker 3.40 0067  02.08.2006

@<TRIPOS>MOLECULE
ASD01230150
  34   36    0    0    0
SMALL
NO_CHARGES


@<TRIPOS>ATOM
   1 C1            -0.0188     1.5377     0.0105 C.3     
   2 C2             0.0021    -0.0041     0.0020 C.3     
   3 O3             1.3524     1.9483    -0.0004 O.3     
   4 C4             2.1828     0.9069     0.5194 C.3     
   5 C5             1.2614    -0.2982     0.8621 C.3     
   6 C6             2.7138     1.3093     1.9098 C.3     
   7 N7             1.7214     0.8211     2.8730 N.am    
   8 C8             0.9067    -0.0899     2.3170 C.2     
   9 C9             3.2970     0.5226    -0.4561 C.3     
  10 N10            0.2670    -0.4763    -1.3644 N.3     
  11 C11           -0.8387    -0.1301    -2.2640 C.3     
  12 C12           -1.1128     1.3455    -2.1914 C.2     
  13 C13           -0.7465     2.0729    -1.1807 C.2     
  14 O14            0.0117    -0.6646     2.8999 O.2     
  15 C15            4.0492     0.6591     2.1645 C.2     
  16 O16            4.1165    -0.3357     2.8469 O.2     
  17 O17            5.1640     1.1851     1.6332 O.3     
  18 C18            4.2487     1.6804    -0.6131 C.2     
  19 O19            4.0556     2.7076    -0.0070 O.2     
  20 O20            5.3110     1.5705    -1.4264 O.3     
  21 H21           -0.5014     1.8933     0.9209 H       
  22 H22           -0.9088    -0.4347     0.4179 H       
  23 H23            1.7134    -1.2673     0.6505 H       
  24 H24            2.8034     2.3934     1.9789 H       
  25 H25            1.6615     1.1183     3.7944 H       
  26 H26            3.8369    -0.3416    -0.0688 H       
  27 H27            2.8626     0.2754    -1.4248 H       
  28 H28            1.1420    -0.1113    -1.7098 H       
  29 H29           -0.5719    -0.3992    -3.2860 H       
  30 H30           -1.7323    -0.6795    -1.9676 H       
  31 H31           -1.6340     1.8184    -3.0107 H       
  32 H32           -0.9816     3.1268    -1.2014 H       
  33 H33            5.9971     0.7329     1.8245 H       
  34 H34            5.8930     2.3397    -1.4946 H       
@<TRIPOS>BOND
   1    1    2 1
   2    1    3 1
   3    1   13 1
   4    1   21 1
   5    2   10 1
   6    2    5 1
   7    2   22 1
   8    3    4 1
   9    4    5 1
  10    4    9 1
  11    4    6 1
  12    5    8 1
  13    5   23 1
  14    6    7 1
  15    6   15 1
  16    6   24 1
  17    7    8 am
  18    7   25 1
  19    8   14 2
  20    9   18 1
  21    9   26 1
  22    9   27 1
  23   10   11 1
  24   10   28 1
  25   11   12 1
  26   11   29 1
  27   11   30 1
  28   12   13 2
  29   12   31 1
  30   13   32 1
  31   15   16 2
  32   15   17 1
  33   17   33 1
  34   18   19 2
  35   18   20 1
  36   20   34 1

#	End of record

