#	Name: ASD03130008
#	Creating user name:	WinNT
#	Creation time:	15. 06. 2019 20:33

#	Modifying user name:	WinNT
#	Modification time:	15. 06. 2019 20:33

#	Program:	/corina/corina34_cracker 3.40 0067  02.08.2006

@<TRIPOS>MOLECULE
ASD03130008
 318  319    0    0    0
SMALL
NO_CHARGES


@<TRIPOS>ATOM
   1 N1             6.3979     2.5673    -8.4640 N.am    
   2 C2            57.0885    -5.7022   -14.5197 C.2     
   3 O3            57.1008    -4.9023   -13.6147 O.2     
   4 C4            58.1660    -5.6653   -15.5726 C.3     
   5 C5            59.1431    -4.5294   -15.2628 C.3     
   6 C6            60.2371    -4.4919   -16.3318 C.3     
   7 C7            61.2142    -3.3560   -16.0220 C.3     
   8 C8            62.3081    -3.3185   -17.0910 C.3     
   9 C9            63.2852    -2.1826   -16.7812 C.3     
  10 C10           64.3792    -2.1451   -17.8502 C.3     
  11 C11           65.3562    -1.0092   -17.5404 C.3     
  12 C12           66.4502    -0.9718   -18.6094 C.3     
  13 C13           67.4273     0.1641   -18.2996 C.3     
  14 C14           68.5212     0.2016   -19.3686 C.3     
  15 C15           69.4983     1.3375   -19.0588 C.3     
  16 C16           70.5923     1.3750   -20.1278 C.3     
  17 C17           71.5694     2.5109   -19.8180 C.3     
  18 C18           72.6633     2.5484   -20.8870 C.3     
  19 C19           54.9331    -6.7598   -13.5420 C.3     
  20 C20           56.0106    -6.7229   -14.5949 C.2     
  21 N21           53.9950    -7.8504   -13.8394 N.3     
  22 O22           55.9983    -7.5228   -15.4999 O.2     
  23 C23           52.4766   -10.2897   -12.4542 C.3     
  24 C24           52.0011    -9.0069   -13.1392 C.3     
  25 C25           50.6304    -8.6435   -12.6292 C.2     
  26 N26           52.9392    -7.9163   -12.8418 N.3     
  27 O27           50.4525    -7.5807   -12.0727 O.2     
  28 N28           55.5649   -12.4288   -12.9568 N.pl3   
  29 C29           56.1899   -13.5638   -12.4970 C.2     
  30 N30           57.3269   -13.9364   -13.0139 N.2     
  31 N31           55.6155   -14.3057   -11.4922 N.pl3   
  32 C32           53.8114   -10.7271   -13.0609 C.3     
  33 C33           54.2869   -12.0099   -12.3759 C.3     
  34 C34           48.2697    -9.1464   -12.2956 C.3     
  35 C35           47.4836   -10.4040   -12.0281 C.2     
  36 N36           49.6022    -9.4996   -12.7915 N.am    
  37 O37           47.9869   -11.4886   -12.2316 O.2     
  38 C38           49.2675    -6.8773   -14.4644 C.ar    
  39 C39           49.9275    -5.6737   -14.6279 C.ar    
  40 C40           49.5819    -4.5846   -13.8500 C.ar    
  41 C41           48.5758    -4.6989   -12.9088 C.ar    
  42 C42           47.9161    -5.9026   -12.7449 C.ar    
  43 C43           48.2618    -6.9917   -13.5229 C.ar    
  44 C44           47.5419    -8.3036   -13.3449 C.3     
  45 C45           45.7849   -12.0638    -9.9008 C.3     
  46 C46           45.4571   -11.5460   -11.3027 C.3     
  47 C47           43.9831   -11.2464   -11.3956 C.2     
  48 N48           46.2213   -10.3235   -11.5628 N.am    
  49 O49           43.6079   -10.1224   -11.6537 O.2     
  50 C50           47.2325   -12.4789    -9.8443 C.2     
  51 N51           48.2839   -11.7160    -9.4129 N.pl3   
  52 C52           49.3983   -12.4699    -9.5282 C.2     
  53 N53           49.0655   -13.6384   -10.0044 N.2     
  54 C54           47.7395   -13.6738   -10.2031 C.2     
  55 C55           41.2008   -12.0285   -12.7423 C.3     
  56 C56           41.6489   -11.9363   -11.2823 C.3     
  57 C57           40.8802   -12.9357   -10.4568 C.2     
  58 N58           43.0818   -12.2276   -11.1919 N.am    
  59 O59           41.4385   -13.9208   -10.0224 O.2     
  60 C60           41.8796   -10.9240   -13.5548 C.3     
  61 C61           41.5925   -13.3939   -13.3108 C.3     
  62 C62           39.0535   -13.1980    -7.8567 C.3     
  63 C63           38.8525   -13.6441    -9.3063 C.3     
  64 C64           37.3831   -13.6192    -9.6403 C.2     
  65 N65           39.5722   -12.7347   -10.2014 N.am    
  66 O66           36.9771   -12.9116   -10.5377 O.2     
  67 C67           40.5292   -13.3419    -7.4788 C.3     
  68 C68           40.7272   -12.9025    -6.0510 C.2     
  69 O69           39.7813   -12.5127    -5.3997 O.2     
  70 N70           41.9556   -12.9427    -5.4977 N.am    
  71 C71           34.4898   -15.7407    -8.8133 C.3     
  72 C72           35.1105   -14.4435    -9.3357 C.3     
  73 C73           34.3753   -13.2644    -8.7524 C.2     
  74 N74           36.5203   -14.3834    -8.9418 N.am    
  75 O75           34.9703   -12.4537    -8.0745 O.2     
  76 C76           35.1173   -16.9166    -9.5165 C.2     
  77 N77           34.8096   -18.1723    -9.1356 N.am    
  78 O78           35.8992   -16.7330   -10.4253 O.2     
  79 C79           32.5068   -10.7315    -9.1197 C.3     
  80 C80           32.3189   -12.0277    -8.3289 C.3     
  81 C81           30.8539   -12.3770    -8.2777 C.2     
  82 N82           33.0565   -13.1107    -8.9842 N.am    
  83 O83           30.4250   -13.2928    -8.9473 O.2     
  84 C84           31.8847    -9.5673    -8.3459 C.3     
  85 C85           32.6743    -9.3320    -7.0567 C.3     
  86 C86           31.9254    -8.3032    -9.2068 C.3     
  87 C87           28.4888   -13.1510    -6.2843 C.3     
  88 C88           28.6166   -12.0722    -7.3617 C.3     
  89 C89           27.7856   -10.8758    -6.9756 C.2     
  90 N90           30.0202   -11.6718    -7.4876 N.am    
  91 O91           28.3138    -9.7950    -6.8210 O.2     
  92 O92           28.8400   -12.5993    -5.0137 O.3     
  93 C93           25.2589    -9.0653    -7.6855 C.3     
  94 C94           25.6477    -9.8437    -6.4270 C.3     
  95 C95           24.4012   -10.3057    -5.7171 C.2     
  96 N96           26.4555   -11.0068    -6.8023 N.am    
  97 O97           24.2069   -11.4900    -5.5419 O.2     
  98 C98           26.5174    -8.4903    -8.3386 C.3     
  99 C99           26.1345    -7.7236    -9.5782 C.2     
 100 O100          24.9697    -7.6448    -9.9069 O.2     
 101 N101          27.0864    -7.1254   -10.3216 N.am    
 102 C102          22.5956   -10.0550    -3.1012 C.3     
 103 C103          22.2908    -9.8521    -4.5868 C.3     
 104 C104          21.2106    -8.8127    -4.7406 C.2     
 105 N105          23.5025    -9.4029    -5.2769 N.am    
 106 O106          21.4826    -7.7159    -5.1809 O.2     
 107 C107          23.5898   -11.2063    -2.9371 C.3     
 108 C108          23.2001    -8.7730    -2.5249 C.3     
 109 C109          18.3594    -8.3052    -6.0748 C.3     
 110 C110          18.8724    -8.1339    -4.6435 C.3     
 111 C111          17.7427    -8.3669    -3.6737 C.2     
 112 N112          19.9421    -9.1020    -4.3889 N.am    
 113 O113          17.8231    -9.2543    -2.8509 O.2     
 114 C114          19.4725    -7.9475    -7.0617 C.3     
 115 C115          18.9672    -8.1163    -8.4714 C.2     
 116 O116          17.8333    -8.4849    -8.6667 O.2     
 117 O117          19.7770    -7.8572    -9.5101 O.3     
 118 C118          15.8337    -7.0748    -1.4709 C.3     
 119 C119          15.5448    -7.8157    -2.7780 C.3     
 120 C120          14.2585    -7.3026    -3.3724 C.2     
 121 N121          16.6430    -7.5891    -3.7208 N.am    
 122 O122          14.2591    -6.7974    -4.4751 O.2     
 123 C123          17.0707    -7.6801    -0.8043 C.3     
 124 C124          17.3553    -6.9504     0.4832 C.2     
 125 O125          16.6393    -6.0362     0.8331 O.2     
 126 N126          18.4056    -7.3136     1.2457 N.am    
 127 C127          10.6685    -7.5857    -2.6837 C.3     
 128 C128          11.8781    -6.8089    -3.2074 C.3     
 129 C129          11.7842    -5.3725    -2.7614 C.2     
 130 N130          13.1075    -7.4050    -2.6788 N.am    
 131 O131          12.6582    -4.8939    -2.0699 O.2     
 132 C132          10.6779    -8.9782    -3.2599 C.2     
 133 O133          11.4998    -9.2823    -4.0916 O.2     
 134 O134           9.7731    -9.8806    -2.8492 O.3     
 135 C135          10.6378    -3.2234    -2.6971 C.3     
 136 C136           9.3731    -2.6102    -3.2409 C.2     
 137 N137          10.7290    -4.6198    -3.1308 N.am    
 138 O138           8.6221    -3.2742    -3.9235 O.2     
 139 C139           7.4206     0.4382    -2.6034 C.3     
 140 C140           7.8474    -0.7278    -3.4974 C.3     
 141 C141           8.0945    -0.2241    -4.8961 C.2     
 142 N142           9.0768    -1.3239    -2.9687 N.am    
 143 O143           9.1897    -0.3506    -5.4015 O.2     
 144 N144           6.2679     0.5672     1.0050 N.pl3   
 145 C145           5.8511     1.4374     1.9844 C.2     
 146 N146           5.5352     0.9861     3.1657 N.2     
 147 N147           5.7674     2.7835     1.7178 N.pl3   
 148 C148           7.0498    -0.0915    -1.2167 C.3     
 149 C149           6.6230     1.0745    -0.3227 C.3     
 150 C150           7.1496    -0.2895    -7.9406 C.3     
 151 C151           7.3386     0.8567    -6.9449 C.3     
 152 C152           6.3639     1.9619    -7.2603 C.2     
 153 N153           7.0984     0.3670    -5.5852 N.am    
 154 O154           5.5488     2.3066    -6.4310 O.2     
 155 O155           5.7847    -0.7124    -7.9267 O.3     
 156 C156           8.0507    -1.4615    -7.5462 C.3     
 157 H157           7.0498     2.2916    -9.1273 H       
 158 H158           5.7679     3.2759    -8.6685 H       
 159 H159          58.7020    -6.6144   -15.5774 H       
 160 H160          57.7134    -5.4987   -16.5501 H       
 161 H161          58.6071    -3.5803   -15.2580 H       
 162 H162          59.5958    -4.6959   -14.2854 H       
 163 H163          60.7731    -5.4410   -16.3366 H       
 164 H164          59.7844    -4.3253   -17.3093 H       
 165 H165          60.6782    -2.4069   -16.0172 H       
 166 H166          61.6668    -3.5226   -15.0446 H       
 167 H167          62.8441    -4.2676   -17.0958 H       
 168 H168          61.8554    -3.1519   -18.0685 H       
 169 H169          62.7492    -1.2335   -16.7764 H       
 170 H170          63.7379    -2.3492   -15.8038 H       
 171 H171          64.9151    -3.0943   -17.8550 H       
 172 H172          63.9265    -1.9786   -18.8277 H       
 173 H173          64.8203    -0.0601   -17.5356 H       
 174 H174          65.8089    -1.1758   -16.5630 H       
 175 H175          66.9862    -1.9209   -18.6142 H       
 176 H176          65.9975    -0.8052   -19.5869 H       
 177 H177          66.8913     1.1132   -18.2948 H       
 178 H178          67.8800    -0.0024   -17.3222 H       
 179 H179          69.0572    -0.7475   -19.3734 H       
 180 H180          68.0686     0.3682   -20.3461 H       
 181 H181          68.9623     2.2866   -19.0540 H       
 182 H182          69.9510     1.1709   -18.0814 H       
 183 H183          71.1283     0.4259   -20.1326 H       
 184 H184          70.1396     1.5416   -21.1053 H       
 185 H185          71.0334     3.4600   -19.8132 H       
 186 H186          72.0220     2.3443   -18.8406 H       
 187 H187          73.3594     3.3576   -20.6663 H       
 188 H188          73.1993     1.5992   -20.8918 H       
 189 H189          72.2106     2.7149   -21.8645 H       
 190 H190          55.3858    -6.9264   -12.5645 H       
 191 H191          54.3971    -5.8107   -13.5372 H       
 192 H192          53.6103    -7.7536   -14.7671 H       
 193 H193          52.6052   -10.1058   -11.3876 H       
 194 H194          51.7359   -11.0758   -12.6007 H       
 195 H195          51.9577    -9.1650   -14.2168 H       
 196 H196          53.3239    -8.0131   -11.9140 H       
 197 H197          55.9702   -11.9053   -13.6658 H       
 198 H198          57.7679   -14.7372   -12.6895 H       
 199 H199          54.7693   -14.0283   -11.1076 H       
 200 H200          56.0564   -15.1065   -11.1678 H       
 201 H201          53.6828   -10.9110   -14.1275 H       
 202 H202          54.5521    -9.9410   -12.9144 H       
 203 H203          53.5462   -12.7960   -12.5223 H       
 204 H204          54.4155   -11.8260   -11.3092 H       
 205 H205          48.3652    -8.5744   -11.3727 H       
 206 H206          49.7445   -10.3497   -13.2365 H       
 207 H207          49.5345    -7.7269   -15.0753 H       
 208 H208          50.7135    -5.5845   -15.3632 H       
 209 H209          50.0980    -3.6445   -13.9772 H       
 210 H210          48.3063    -3.8482   -12.3005 H       
 211 H211          47.1304    -5.9919   -12.0094 H       
 212 H212          47.5246    -8.8401   -14.2936 H       
 213 H213          46.5202    -8.1156   -13.0151 H       
 214 H214          45.6044   -11.2749    -9.1706 H       
 215 H215          45.1518   -12.9214    -9.6730 H       
 216 H216          45.7211   -12.3035   -12.0407 H       
 217 H217          45.8187    -9.4561   -11.4000 H       
 218 H218          48.2372   -10.8041    -9.0856 H       
 219 H219          50.3992   -12.1574    -9.2696 H       
 220 H220          47.1773   -14.5127   -10.5861 H       
 221 H221          40.1189   -11.9083   -12.7986 H       
 222 H222          41.4581   -10.9311   -10.9064 H       
 223 H223          43.3819   -13.1266   -10.9855 H       
 224 H224          41.5481   -10.9797   -14.5917 H       
 225 H225          41.6133    -9.9518   -13.1400 H       
 226 H226          42.9610   -11.0535   -13.5116 H       
 227 H227          42.6744   -13.5141   -13.2545 H       
 228 H228          41.1089   -14.1808   -12.7319 H       
 229 H229          41.2733   -13.4595   -14.3509 H       
 230 H230          38.7516   -12.1559    -7.7520 H       
 231 H231          38.4475   -13.8198    -7.1978 H       
 232 H232          39.2364   -14.6565    -9.4315 H       
 233 H233          39.1073   -11.9879   -10.6102 H       
 234 H234          40.8311   -14.3840    -7.5835 H       
 235 H235          41.1352   -12.7201    -8.1377 H       
 236 H236          42.7121   -13.2545    -6.0186 H       
 237 H237          42.0830   -12.6599    -4.5787 H       
 238 H238          34.6668   -15.8220    -7.7408 H       
 239 H239          33.4168   -15.7330    -9.0049 H       
 240 H240          35.0355   -14.4169   -10.4228 H       
 241 H241          36.8327   -14.8937    -8.1783 H       
 242 H242          34.1842   -18.3191    -8.4088 H       
 243 H243          35.2135   -18.9292    -9.5883 H       
 244 H244          33.5710   -10.5447    -9.2636 H       
 245 H245          32.0196   -10.8242   -10.0904 H       
 246 H246          32.6960   -11.8928    -7.3152 H       
 247 H247          32.5958   -13.7172    -9.5848 H       
 248 H248          30.8501    -9.8063    -8.0998 H       
 249 H249          33.6910    -9.0266    -7.3040 H       
 250 H250          32.1914    -8.5485    -6.4728 H       
 251 H251          32.7031   -10.2534    -6.4750 H       
 252 H252          31.3628    -8.4708   -10.1253 H       
 253 H253          31.4822    -7.4738    -8.6556 H       
 254 H254          32.9600    -8.0643    -9.4529 H       
 255 H255          27.4609   -13.5122    -6.2520 H       
 256 H256          29.1577   -13.9792    -6.5182 H       
 257 H257          28.2645   -12.4670    -8.3147 H       
 258 H258          30.3495   -10.8991    -7.0025 H       
 259 H259          28.7816   -13.2287    -4.2819 H       
 260 H260          24.7590    -9.7338    -8.3863 H       
 261 H261          24.5854    -8.2518    -7.4160 H       
 262 H262          26.2251    -9.1987    -5.7647 H       
 263 H263          26.0331   -11.8712    -6.9260 H       
 264 H264          27.0174    -7.8217    -7.6378 H       
 265 H265          27.1909    -9.3038    -8.6082 H       
 266 H266          28.0180    -7.1884   -10.0587 H       
 267 H267          26.8399    -6.6319   -11.1194 H       
 268 H268          21.6737   -10.2925    -2.5704 H       
 269 H269          21.9536   -10.7936    -5.0204 H       
 270 H270          23.6580    -8.4558    -5.4171 H       
 271 H271          23.7149   -11.4300    -1.8777 H       
 272 H272          23.2117   -12.0891    -3.4527 H       
 273 H273          24.5510   -10.9199    -3.3640 H       
 274 H274          24.1219    -8.5354    -3.0558 H       
 275 H275          22.4918    -7.9528    -2.6418 H       
 276 H276          23.4171    -8.9175    -1.4666 H       
 277 H277          18.0549    -9.3402    -6.2301 H       
 278 H278          17.5056    -7.6472    -6.2359 H       
 279 H279          19.2591    -7.1229    -4.5148 H       
 280 H280          19.7373    -9.9512    -3.9673 H       
 281 H281          19.7770    -6.9125    -6.9064 H       
 282 H282          20.3263    -8.6056    -6.9005 H       
 283 H283          19.4081    -7.9799   -10.3956 H       
 284 H284          16.0142    -6.0209    -1.6828 H       
 285 H285          14.9778    -7.1696    -0.8026 H       
 286 H286          15.4521    -8.8831    -2.5778 H       
 287 H287          16.5787    -6.8794    -4.3788 H       
 288 H288          16.8902    -8.7339    -0.5924 H       
 289 H289          17.9266    -7.5853    -1.4726 H       
 290 H290          18.9783    -8.0448     0.9658 H       
 291 H291          18.5888    -6.8440     2.0744 H       
 292 H292          10.7160    -7.6422    -1.5962 H       
 293 H293           9.7524    -7.0755    -2.9814 H       
 294 H294          11.8931    -6.8509    -4.2965 H       
 295 H295          13.0931    -7.8735    -1.8295 H       
 296 H296           9.8186   -10.7606    -3.2474 H       
 297 H297          11.4995    -2.6700    -3.0702 H       
 298 H298          10.6228    -3.1814    -1.6080 H       
 299 H299          10.0301    -5.0026    -3.6838 H       
 300 H300           8.2436     1.1472    -2.5133 H       
 301 H301           6.5577     0.9373    -3.0444 H       
 302 H302           7.0580    -1.4792    -3.5160 H       
 303 H303           9.6775    -0.7928    -2.4228 H       
 304 H304           6.3270    -0.3825     1.1931 H       
 305 H305           5.2411     1.6000     3.8568 H       
 306 H306           6.0025     3.1193     0.8387 H       
 307 H307           5.4733     3.3974     2.4088 H       
 308 H308           6.2268    -0.8005    -1.3068 H       
 309 H309           7.9127    -0.5906    -0.7757 H       
 310 H310           5.7601     1.5735    -0.7637 H       
 311 H311           7.4460     1.7835    -0.2327 H       
 312 H312           7.4142     0.0514    -8.9415 H       
 313 H313           8.3570     1.2382    -7.0191 H       
 314 H314           6.2225     0.4682    -5.1810 H       
 315 H315           5.4799    -1.0294    -7.0655 H       
 316 H316           7.7861    -1.8024    -6.5452 H       
 317 H317           7.9160    -2.2781    -8.2555 H       
 318 H318           9.0918    -1.1389    -7.5568 H       
@<TRIPOS>BOND
   1    1  152 am
   2    1  157 1
   3    1  158 1
   4    2   20 1
   5    2    3 2
   6    2    4 1
   7    4    5 1
   8    4  159 1
   9    4  160 1
  10    5    6 1
  11    5  161 1
  12    5  162 1
  13    6    7 1
  14    6  163 1
  15    6  164 1
  16    7    8 1
  17    7  165 1
  18    7  166 1
  19    8    9 1
  20    8  167 1
  21    8  168 1
  22    9   10 1
  23    9  169 1
  24    9  170 1
  25   10   11 1
  26   10  171 1
  27   10  172 1
  28   11   12 1
  29   11  173 1
  30   11  174 1
  31   12   13 1
  32   12  175 1
  33   12  176 1
  34   13   14 1
  35   13  177 1
  36   13  178 1
  37   14   15 1
  38   14  179 1
  39   14  180 1
  40   15   16 1
  41   15  181 1
  42   15  182 1
  43   16   17 1
  44   16  183 1
  45   16  184 1
  46   17   18 1
  47   17  185 1
  48   17  186 1
  49   18  187 1
  50   18  188 1
  51   18  189 1
  52   19   20 1
  53   19   21 1
  54   19  190 1
  55   19  191 1
  56   20   22 2
  57   21   26 1
  58   21  192 1
  59   23   32 1
  60   23   24 1
  61   23  193 1
  62   23  194 1
  63   24   26 1
  64   24   25 1
  65   24  195 1
  66   25   27 2
  67   25   36 am
  68   26  196 1
  69   28   33 1
  70   28   29 1
  71   28  197 1
  72   29   30 2
  73   29   31 1
  74   30  198 1
  75   31  199 1
  76   31  200 1
  77   32   33 1
  78   32  201 1
  79   32  202 1
  80   33  203 1
  81   33  204 1
  82   34   35 1
  83   34   36 1
  84   34   44 1
  85   34  205 1
  86   35   37 2
  87   35   48 am
  88   36  206 1
  89   38   39 ar
  90   38   43 ar
  91   38  207 1
  92   39   40 ar
  93   39  208 1
  94   40   41 ar
  95   40  209 1
  96   41   42 ar
  97   41  210 1
  98   42   43 ar
  99   42  211 1
 100   43   44 1
 101   44  212 1
 102   44  213 1
 103   45   50 1
 104   45   46 1
 105   45  214 1
 106   45  215 1
 107   46   47 1
 108   46   48 1
 109   46  216 1
 110   47   49 2
 111   47   58 am
 112   48  217 1
 113   50   51 1
 114   50   54 2
 115   51   52 1
 116   51  218 1
 117   52   53 2
 118   52  219 1
 119   53   54 1
 120   54  220 1
 121   55   60 1
 122   55   61 1
 123   55   56 1
 124   55  221 1
 125   56   58 1
 126   56   57 1
 127   56  222 1
 128   57   59 2
 129   57   65 am
 130   58  223 1
 131   60  224 1
 132   60  225 1
 133   60  226 1
 134   61  227 1
 135   61  228 1
 136   61  229 1
 137   62   67 1
 138   62   63 1
 139   62  230 1
 140   62  231 1
 141   63   65 1
 142   63   64 1
 143   63  232 1
 144   64   66 2
 145   64   74 am
 146   65  233 1
 147   67   68 1
 148   67  234 1
 149   67  235 1
 150   68   69 2
 151   68   70 am
 152   70  236 1
 153   70  237 1
 154   71   76 1
 155   71   72 1
 156   71  238 1
 157   71  239 1
 158   72   74 1
 159   72   73 1
 160   72  240 1
 161   73   75 2
 162   73   82 am
 163   74  241 1
 164   76   77 am
 165   76   78 2
 166   77  242 1
 167   77  243 1
 168   79   84 1
 169   79   80 1
 170   79  244 1
 171   79  245 1
 172   80   82 1
 173   80   81 1
 174   80  246 1
 175   81   83 2
 176   81   90 am
 177   82  247 1
 178   84   85 1
 179   84   86 1
 180   84  248 1
 181   85  249 1
 182   85  250 1
 183   85  251 1
 184   86  252 1
 185   86  253 1
 186   86  254 1
 187   87   92 1
 188   87   88 1
 189   87  255 1
 190   87  256 1
 191   88   90 1
 192   88   89 1
 193   88  257 1
 194   89   91 2
 195   89   96 am
 196   90  258 1
 197   92  259 1
 198   93   98 1
 199   93   94 1
 200   93  260 1
 201   93  261 1
 202   94   96 1
 203   94   95 1
 204   94  262 1
 205   95   97 2
 206   95  105 am
 207   96  263 1
 208   98   99 1
 209   98  264 1
 210   98  265 1
 211   99  100 2
 212   99  101 am
 213  101  266 1
 214  101  267 1
 215  102  107 1
 216  102  108 1
 217  102  103 1
 218  102  268 1
 219  103  105 1
 220  103  104 1
 221  103  269 1
 222  104  106 2
 223  104  112 am
 224  105  270 1
 225  107  271 1
 226  107  272 1
 227  107  273 1
 228  108  274 1
 229  108  275 1
 230  108  276 1
 231  109  114 1
 232  109  110 1
 233  109  277 1
 234  109  278 1
 235  110  112 1
 236  110  111 1
 237  110  279 1
 238  111  113 2
 239  111  121 am
 240  112  280 1
 241  114  115 1
 242  114  281 1
 243  114  282 1
 244  115  116 2
 245  115  117 1
 246  117  283 1
 247  118  123 1
 248  118  119 1
 249  118  284 1
 250  118  285 1
 251  119  121 1
 252  119  120 1
 253  119  286 1
 254  120  122 2
 255  120  130 am
 256  121  287 1
 257  123  124 1
 258  123  288 1
 259  123  289 1
 260  124  125 2
 261  124  126 am
 262  126  290 1
 263  126  291 1
 264  127  132 1
 265  127  128 1
 266  127  292 1
 267  127  293 1
 268  128  129 1
 269  128  130 1
 270  128  294 1
 271  129  131 2
 272  129  137 am
 273  130  295 1
 274  132  133 2
 275  132  134 1
 276  134  296 1
 277  135  136 1
 278  135  137 1
 279  135  297 1
 280  135  298 1
 281  136  138 2
 282  136  142 am
 283  137  299 1
 284  139  148 1
 285  139  140 1
 286  139  300 1
 287  139  301 1
 288  140  142 1
 289  140  141 1
 290  140  302 1
 291  141  143 2
 292  141  153 am
 293  142  303 1
 294  144  149 1
 295  144  145 1
 296  144  304 1
 297  145  146 2
 298  145  147 1
 299  146  305 1
 300  147  306 1
 301  147  307 1
 302  148  149 1
 303  148  308 1
 304  148  309 1
 305  149  310 1
 306  149  311 1
 307  150  151 1
 308  150  155 1
 309  150  156 1
 310  150  312 1
 311  151  153 1
 312  151  152 1
 313  151  313 1
 314  152  154 2
 315  153  314 1
 316  155  315 1
 317  156  316 1
 318  156  317 1
 319  156  318 1

#	End of record

