#	Name: ASD01882775
#	Creating user name:	WinNT
#	Creation time:	15. 06. 2019 19:45

#	Modifying user name:	WinNT
#	Modification time:	15. 06. 2019 19:45

#	Program:	/corina/corina34_cracker 3.40 0067  02.08.2006

@<TRIPOS>MOLECULE
ASD01882775
  50   52    0    0    0
SMALL
NO_CHARGES


@<TRIPOS>ATOM
   1 C1            -0.0404     1.4796    -0.0291 C.ar    
   2 C2            -0.0442    -0.0027    -0.0791 C.ar    
   3 N3             1.1044    -0.6558    -0.2031 N.ar    
   4 C4            -1.2530    -0.6896     0.0106 C.ar    
   5 C5            -1.2499    -2.0735    -0.0362 C.ar    
   6 C6             1.1469    -1.9758    -0.2512 C.ar    
   7 N7             2.1892    -2.8860    -0.3748 N.am    
   8 C8            -0.0318    -2.7257    -0.1718 C.ar    
   9 N9             0.3344    -4.0656    -0.2515 N.am    
  10 C10            1.6742    -4.1294    -0.3711 C.2     
  11 C11            3.6102    -2.5489    -0.4903 C.3     
  12 C12           -0.5792    -5.2099    -0.2044 C.3     
  13 C13           -1.0319    -5.5597    -1.6235 C.3     
  14 C14            0.1884    -5.9160    -2.4748 C.3     
  15 C15           -1.9860    -6.7548    -1.5743 C.3     
  16 C16           -1.7508    -4.3582    -2.2402 C.3     
  17 O17            2.3211    -5.1558    -0.4633 O.2     
  18 C18            0.8491     3.5283     0.8512 C.ar    
  19 C19           -0.0340     4.2465     0.0650 C.ar    
  20 C20           -0.9237     3.5875    -0.7639 C.ar    
  21 C21           -0.9314     2.2081    -0.8148 C.ar    
  22 C22            0.8504     2.1491     0.8084 C.ar    
  23 C23           -1.8829     4.3769    -1.6170 C.3     
  24 O24           -1.2786     4.6534    -2.8821 O.3     
  25 C25            1.8126     1.3680     1.6658 C.3     
  26 H26           -2.1819    -0.1488     0.1158 H       
  27 H27           -2.1720    -2.6316     0.0314 H       
  28 H28            4.0539    -2.4997     0.5041 H       
  29 H29            4.1185    -3.3137    -1.0775 H       
  30 H30            3.7155    -1.5825    -0.9834 H       
  31 H31           -0.0670    -6.0659     0.2349 H       
  32 H32           -1.4485    -4.9561     0.4021 H       
  33 H33            0.7006    -6.7720    -2.0355 H       
  34 H34           -0.1341    -6.1652    -3.4858 H       
  35 H35            0.8681    -5.0646    -2.5098 H       
  36 H36           -2.8553    -6.5010    -0.9678 H       
  37 H37           -2.3085    -7.0040    -2.5853 H       
  38 H38           -1.4738    -7.6108    -1.1350 H       
  39 H39           -1.0711    -3.5068    -2.2752 H       
  40 H40           -2.0733    -4.6074    -3.2511 H       
  41 H41           -2.6202    -4.1044    -1.6337 H       
  42 H42            1.5419     4.0481     1.4963 H       
  43 H43           -0.0315     5.3259     0.1017 H       
  44 H44           -1.6262     1.6945    -1.4627 H       
  45 H45           -2.7946     3.7991    -1.7684 H       
  46 H46           -2.1259     5.3149    -1.1177 H       
  47 H47           -1.8407     5.1599    -3.4842 H       
  48 H48            2.7000     1.1206     1.0832 H       
  49 H49            2.1004     1.9687     2.5287 H       
  50 H50            1.3335     0.4499     2.0058 H       
@<TRIPOS>BOND
   1    1    2 1
   2    1   22 ar
   3    1   21 ar
   4    2    4 ar
   5    2    3 ar
   6    3    6 ar
   7    4    5 ar
   8    4   26 1
   9    5    8 ar
  10    5   27 1
  11    6    8 ar
  12    6    7 1
  13    7   10 am
  14    7   11 1
  15    8    9 1
  16    9   10 am
  17    9   12 1
  18   10   17 2
  19   11   28 1
  20   11   29 1
  21   11   30 1
  22   12   13 1
  23   12   31 1
  24   12   32 1
  25   13   14 1
  26   13   15 1
  27   13   16 1
  28   14   33 1
  29   14   34 1
  30   14   35 1
  31   15   36 1
  32   15   37 1
  33   15   38 1
  34   16   39 1
  35   16   40 1
  36   16   41 1
  37   18   19 ar
  38   18   22 ar
  39   18   42 1
  40   19   20 ar
  41   19   43 1
  42   20   21 ar
  43   20   23 1
  44   21   44 1
  45   22   25 1
  46   23   24 1
  47   23   45 1
  48   23   46 1
  49   24   47 1
  50   25   48 1
  51   25   49 1
  52   25   50 1

#	End of record

