#	Name: ASD01811621
#	Creating user name:	WinNT
#	Creation time:	15. 06. 2019 19:27

#	Modifying user name:	WinNT
#	Modification time:	15. 06. 2019 19:27

#	Program:	/corina/corina34_cracker 3.40 0067  02.08.2006

@<TRIPOS>MOLECULE
ASD01811621
  61   65    0    0    0
SMALL
NO_CHARGES


@<TRIPOS>ATOM
   1 C1            -8.3534     2.4292     2.4763 C.1     
   2 C2            -7.1629     3.1886     2.2383 C.ar    
   3 C3            -5.9221     2.6928     2.6438 C.ar    
   4 C4            -4.7792     3.4296     2.4114 C.ar    
   5 C5            -4.8605     4.6573     1.7785 C.ar    
   6 C6            -6.0868     5.1547     1.3745 C.ar    
   7 C7            -7.2369     4.4254     1.5946 C.ar    
   8 N8            -9.2979     1.8268     2.6651 N.1     
   9 N9            -2.0758     7.8343     1.5094 N.am    
  10 C10           -2.6182     7.3493     0.2330 C.3     
  11 C11           -3.9020     6.5609     0.5106 C.3     
  12 C12           -3.6077     5.4566     1.5286 C.3     
  13 C13           -3.1327     6.0840     2.8412 C.3     
  14 C14           -1.8402     6.8671     2.5900 C.3     
  15 F15           -2.6097     4.6143     1.0270 F       
  16 C16           -1.7943     9.1408     1.6838 C.2     
  17 C17           -1.3300     9.6277     3.0006 C.ar    
  18 C18           -2.0139    10.6607     3.6458 C.ar    
  19 C19           -1.5816    11.1163     4.8751 C.ar    
  20 C20           -0.4712    10.5552     5.4749 C.ar    
  21 C21            0.2215     9.5222     4.8408 C.ar    
  22 C22           -0.2129     9.0533     3.6031 C.ar    
  23 O23           -1.9221     9.9188     0.7587 O.2     
  24 C24            1.4109     8.9229     5.4846 C.2     
  25 N25            2.2386     7.9895     4.9243 N.pl3   
  26 C26            3.1984     7.7125     5.8448 C.2     
  27 C27            2.9397     8.4722     6.9376 C.2     
  28 N28            1.8559     9.2021     6.6932 N.2     
  29 C29            4.3634     6.7612     5.7540 C.3     
  30 C30            3.7983     8.4322     8.1790 C.3     
  31 C31            4.6671     7.1682     8.1064 C.3     
  32 O32            5.2755     7.0755     6.8155 O.3     
  33 C33           -0.0059    11.0597     6.8166 C.3     
  34 C34           -3.2260    11.2794     2.9984 C.3     
  35 H35           -5.8573     1.7350     3.1385 H       
  36 H36           -3.8188     3.0474     2.7244 H       
  37 H37           -6.1431     6.1139     0.8814 H       
  38 H38           -8.1929     4.8126     1.2744 H       
  39 H39           -2.8429     8.1971    -0.4143 H       
  40 H40           -1.8884     6.7005    -0.2513 H       
  41 H41           -4.6617     7.2320     0.9113 H       
  42 H42           -4.2624     6.1146    -0.4162 H       
  43 H43           -3.8997     6.7596     3.2199 H       
  44 H44           -2.9456     5.2983     3.5732 H       
  45 H45           -1.0470     6.1789     2.2980 H       
  46 H46           -1.5515     7.3966     3.4979 H       
  47 H47           -2.1138    11.9152     5.3699 H       
  48 H48            0.3166     8.2511     3.1107 H       
  49 H49            2.1559     7.5998     4.0398 H       
  50 H50            4.0110     5.7355     5.8626 H       
  51 H51            4.8623     6.8802     4.7921 H       
  52 H52            4.4349     9.3163     8.2165 H       
  53 H53            3.1648     8.3945     9.0652 H       
  54 H54            5.4430     7.2169     8.8704 H       
  55 H55            4.0448     6.2899     8.2779 H       
  56 H56           -0.4131    10.4258     7.6042 H       
  57 H57            1.0830    11.0347     6.8565 H       
  58 H58           -0.3513    12.0837     6.9594 H       
  59 H59           -4.1079    10.6841     3.2347 H       
  60 H60           -3.3608    12.2936     3.3743 H       
  61 H61           -3.0859    11.3081     1.9178 H       
@<TRIPOS>BOND
   1    1    2 1
   2    1    8 3
   3    2    3 ar
   4    2    7 ar
   5    3    4 ar
   6    3   35 1
   7    4    5 ar
   8    4   36 1
   9    5    6 ar
  10    5   12 1
  11    6    7 ar
  12    6   37 1
  13    7   38 1
  14    9   10 1
  15    9   14 1
  16    9   16 am
  17   10   11 1
  18   10   39 1
  19   10   40 1
  20   11   12 1
  21   11   41 1
  22   11   42 1
  23   12   13 1
  24   12   15 1
  25   13   14 1
  26   13   43 1
  27   13   44 1
  28   14   45 1
  29   14   46 1
  30   16   17 1
  31   16   23 2
  32   17   18 ar
  33   17   22 ar
  34   18   19 ar
  35   18   34 1
  36   19   20 ar
  37   19   47 1
  38   20   21 ar
  39   20   33 1
  40   21   22 ar
  41   21   24 1
  42   22   48 1
  43   24   25 1
  44   24   28 2
  45   25   26 1
  46   25   49 1
  47   26   27 2
  48   26   29 1
  49   27   28 1
  50   27   30 1
  51   29   32 1
  52   29   50 1
  53   29   51 1
  54   30   31 1
  55   30   52 1
  56   30   53 1
  57   31   32 1
  58   31   54 1
  59   31   55 1
  60   33   56 1
  61   33   57 1
  62   33   58 1
  63   34   59 1
  64   34   60 1
  65   34   61 1

#	End of record

