#	Name: ASD02198013
#	Creating user name:	WinNT
#	Creation time:	15. 06. 2019 20:18

#	Modifying user name:	WinNT
#	Modification time:	15. 06. 2019 20:18

#	Program:	/corina/corina34_cracker 3.40 0067  02.08.2006

@<TRIPOS>MOLECULE
ASD02198013
  37   39    0    0    0
SMALL
NO_CHARGES


@<TRIPOS>ATOM
   1 C1             0.0254     1.2641     0.0228 C.2     
   2 C2            -0.0409    -0.0797    -0.0124 C.2     
   3 N3            -1.2288    -0.7528    -0.0083 N.pl3   
   4 C4            -2.3792    -0.0434     0.3339 C.2     
   5 C5            -2.4144     1.3191     0.3826 C.2     
   6 C6            -1.1849     2.1526     0.0615 C.3     
   7 C7             1.2417    -0.8696    -0.0586 C.3     
   8 S8            -3.9426    -0.7162     0.7528 S.3     
   9 C9            -4.6140     0.8911     0.9910 C.2     
  10 C10           -3.6441     1.8316     0.7456 C.2     
  11 C11           -5.9423     1.1709     1.3737 C.2     
  12 O12           -6.3064     2.3257     1.5110 O.2     
  13 N13           -6.8090     0.1611     1.5875 N.am    
  14 N14           -3.8827     3.1988     0.8542 N.pl3   
  15 C15            1.2918     1.8665     0.0294 C.2     
  16 O16            2.0321     1.7144     0.9812 O.2     
  17 C17            1.7347     2.7024    -1.1436 C.3     
  18 C18           -1.0063     3.2126     1.1177 C.2     
  19 O19           -0.8240     2.9911     2.4298 O.3     
  20 C20           -0.7016     4.1657     3.0694 C.2     
  21 C21           -0.8055     5.1554     2.1643 C.2     
  22 C22           -0.9966     4.5408     0.9055 C.2     
  23 H23           -1.2710    -1.6947    -0.2364 H       
  24 H24           -1.3109     2.6265    -0.9119 H       
  25 H25            1.6212    -1.0059     0.9541 H       
  26 H26            1.0526    -1.8436    -0.5099 H       
  27 H27            1.9792    -0.3306    -0.6534 H       
  28 H28           -6.5191    -0.7581     1.4782 H       
  29 H29           -7.7225     0.3536     1.8507 H       
  30 H30           -4.7615     3.5188     1.1116 H       
  31 H31           -3.1702     3.8315     0.6726 H       
  32 H32            0.9995     3.4852    -1.3303 H       
  33 H33            2.7006     3.1565    -0.9222 H       
  34 H34            1.8245     2.0702    -2.0270 H       
  35 H35           -0.5465     4.2939     4.1305 H       
  36 H36           -0.7499     6.2159     2.3610 H       
  37 H37           -1.1181     5.0418    -0.0435 H       
@<TRIPOS>BOND
   1    1    2 2
   2    1   15 1
   3    1    6 1
   4    2    3 1
   5    2    7 1
   6    3    4 1
   7    3   23 1
   8    4    5 2
   9    4    8 1
  10    5    6 1
  11    5   10 1
  12    6   18 1
  13    6   24 1
  14    7   25 1
  15    7   26 1
  16    7   27 1
  17    8    9 1
  18    9   10 2
  19    9   11 1
  20   10   14 1
  21   11   12 2
  22   11   13 am
  23   13   28 1
  24   13   29 1
  25   14   30 1
  26   14   31 1
  27   15   16 2
  28   15   17 1
  29   17   32 1
  30   17   33 1
  31   17   34 1
  32   18   19 1
  33   18   22 2
  34   19   20 1
  35   20   21 2
  36   20   35 1
  37   21   22 1
  38   21   36 1
  39   22   37 1

#	End of record

