#	Name: ASD01870601
#	Creating user name:	WinNT
#	Creation time:	15. 06. 2019 19:39

#	Modifying user name:	WinNT
#	Modification time:	15. 06. 2019 19:39

#	Program:	/corina/corina34_cracker 3.40 0067  02.08.2006

@<TRIPOS>MOLECULE
ASD01870601
  40   43    0    0    0
SMALL
NO_CHARGES


@<TRIPOS>ATOM
   1 C1            -0.0299     1.3979    -0.2325 C.ar    
   2 C2            -0.0267     0.0156    -0.1047 C.ar    
   3 C3             1.1520    -0.6620     0.1403 C.ar    
   4 C4             2.3483     0.0286     0.2620 C.ar    
   5 C5             2.3616     1.4081     0.1371 C.ar    
   6 C6             1.1595     2.1013    -0.1130 C.ar    
   7 C7             3.4170     2.4408     0.2050 C.2     
   8 N8             2.8512     3.6450     0.0062 N.am    
   9 C9             1.5250     3.5306    -0.1875 C.2     
  10 C10            3.5526     4.8613     0.0027 C.ar    
  11 C11            4.0826     5.3534    -1.1818 C.ar    
  12 C12            4.7720     6.5497    -1.1860 C.ar    
  13 C13            4.9362     7.2616    -0.0046 C.ar    
  14 C14            4.4065     6.7706     1.1814 C.ar    
  15 C15            3.7113     5.5757     1.1848 C.ar    
  16 O16            0.7566     4.4490    -0.3912 O.2     
  17 O17            4.5970     2.2364     0.4071 O.2     
  18 N18            5.6359     8.4737    -0.0096 N.am    
  19 C19            6.4089     8.8099     1.0420 C.2     
  20 C20            7.2215    10.0295     0.9944 C.2     
  21 O21            6.4324     8.1012     2.0313 O.2     
  22 C22            8.0444    10.4846     1.9847 C.2     
  23 C23            8.6207    11.6752     1.5150 C.2     
  24 C24            8.1306    11.8920     0.2745 C.2     
  25 O25            7.2917    10.8956    -0.0376 O.3     
  26 C26            8.2868     9.8345     3.3225 C.3     
  27 F27            3.1908     5.0999     2.3372 F       
  28 Cl28          -1.5142     2.2413    -0.5474 Cl      
  29 H29           -0.9520    -0.5337    -0.1971 H       
  30 H30            1.1416    -1.7375     0.2381 H       
  31 H31            3.2662    -0.5071     0.4539 H       
  32 H32            3.9560     4.8001    -2.1006 H       
  33 H33            5.1841     6.9319    -2.1082 H       
  34 H34            4.5341     7.3240     2.1001 H       
  35 H35            5.5646     9.0718    -0.7700 H       
  36 H36            9.3234    12.3007     2.0455 H       
  37 H37            8.3777    12.7287    -0.3620 H       
  38 H38            9.1249     9.1421     3.2434 H       
  39 H39            8.5174    10.6010     4.0624 H       
  40 H40            7.3936     9.2904     3.6292 H       
@<TRIPOS>BOND
   1    1    2 ar
   2    1    6 ar
   3    1   28 1
   4    2    3 ar
   5    2   29 1
   6    3    4 ar
   7    3   30 1
   8    4    5 ar
   9    4   31 1
  10    5    7 1
  11    5    6 ar
  12    6    9 1
  13    7    8 am
  14    7   17 2
  15    8    9 am
  16    8   10 1
  17    9   16 2
  18   10   11 ar
  19   10   15 ar
  20   11   12 ar
  21   11   32 1
  22   12   13 ar
  23   12   33 1
  24   13   14 ar
  25   13   18 1
  26   14   15 ar
  27   14   34 1
  28   15   27 1
  29   18   19 am
  30   18   35 1
  31   19   20 1
  32   19   21 2
  33   20   22 2
  34   20   25 1
  35   22   23 1
  36   22   26 1
  37   23   24 2
  38   23   36 1
  39   24   25 1
  40   24   37 1
  41   26   38 1
  42   26   39 1
  43   26   40 1

#	End of record

