#	Name: ASD01914952
#	Creating user name:	WinNT
#	Creation time:	15. 06. 2019 20:04

#	Modifying user name:	WinNT
#	Modification time:	15. 06. 2019 20:04

#	Program:	/corina/corina34_cracker 3.40 0067  02.08.2006

@<TRIPOS>MOLECULE
ASD01914952
  69   73    0    0    0
SMALL
NO_CHARGES


@<TRIPOS>ATOM
   1 C1            -0.0033     1.3310    -0.0214 C.2     
   2 N2             0.0139     0.0589     0.3176 N.2     
   3 C3             1.3082     1.7201    -0.3417 C.2     
   4 C4             2.1161     0.6326    -0.1823 C.2     
   5 N5             1.3319    -0.4058     0.2257 N.pl3   
   6 C6            -1.2037     2.2030    -0.0642 C.ar    
   7 C7            -1.1025     3.5082    -0.5416 C.ar    
   8 C8            -2.2208     4.3152    -0.5801 C.ar    
   9 C9            -3.4433     3.8297    -0.1444 C.ar    
  10 C10           -3.5482     2.5330     0.3315 C.ar    
  11 C11           -2.4358     1.7171     0.3675 C.ar    
  12 C12            3.5776     0.5877    -0.4107 C.ar    
  13 C13            1.7880    -1.7672     0.5174 C.3     
  14 C14            2.0657    -1.8986     1.9927 C.2     
  15 N15            2.4992    -3.0718     2.4949 N.am    
  16 O16            1.8992    -0.9487     2.7281 O.2     
  17 C17            2.7743    -3.2155     3.9310 C.3     
  18 C18            1.9874    -4.4159     4.4661 C.3     
  19 C19            2.3265    -5.6549     3.6342 C.3     
  20 C20            1.9191    -5.4207     2.1777 C.3     
  21 C21            2.6998    -4.2332     1.6176 C.3     
  22 C22            4.1838     1.5203    -1.2525 C.ar    
  23 C23            5.5469     1.4732    -1.4614 C.ar    
  24 C24            6.3121     0.5038    -0.8380 C.ar    
  25 C25            5.7168    -0.4239    -0.0020 C.ar    
  26 C26            4.3554    -0.3837     0.2195 C.ar    
  27 C27            3.8089    -5.9168     3.7049 C.2     
  28 O28            4.6618    -5.9445     2.6672 O.3     
  29 F29           -4.5359     4.6234    -0.1833 F       
  30 C30           -4.8803     2.0106     0.8045 C.3     
  31 C31            5.8745    -6.2108     3.1808 C.2     
  32 N32            5.7339    -6.3338     4.4700 N.2     
  33 N33            4.4995    -6.1525     4.7842 N.2     
  34 C34            7.1612    -6.3429     2.4073 C.3     
  35 C35            8.1616    -5.2949     2.8990 C.3     
  36 C36            7.7425    -7.7421     2.6197 C.3     
  37 C37            1.5687    -6.8634     4.1875 C.3     
  38 H38            1.6209     2.7044    -0.6577 H       
  39 H39           -0.1499     3.8876    -0.8808 H       
  40 H40           -2.1433     5.3269    -0.9500 H       
  41 H41           -2.5185     0.7061     0.7383 H       
  42 H42            1.0148    -2.4791     0.2284 H       
  43 H43            2.6995    -1.9730    -0.0437 H       
  44 H44            3.8409    -3.3801     4.0841 H       
  45 H45            2.4631    -2.3117     4.4548 H       
  46 H46            2.2563    -4.5922     5.5076 H       
  47 H47            0.9191    -4.2115     4.3954 H       
  48 H48            2.1394    -6.3122     1.5905 H       
  49 H49            0.8514    -5.2068     2.1285 H       
  50 H50            2.3420    -4.0011     0.6145 H       
  51 H51            3.7614    -4.4781     1.5815 H       
  52 H52            3.5875     2.2773    -1.7400 H       
  53 H53            6.0174     2.1944    -2.1132 H       
  54 H54            7.3786     0.4708    -1.0049 H       
  55 H55            6.3194    -1.1782     0.4818 H       
  56 H56            3.8918    -1.1085     0.8724 H       
  57 H57           -5.4087     1.5527    -0.0317 H       
  58 H58           -4.7223     1.2669     1.5855 H       
  59 H59           -5.4733     2.8344     1.2018 H       
  60 H60            6.9648    -6.1882     1.3464 H       
  61 H61            8.3579    -5.4496     3.9599 H       
  62 H62            9.0922    -5.3904     2.3396 H       
  63 H63            7.7474    -4.2980     2.7477 H       
  64 H64            7.0298    -8.4887     2.2695 H       
  65 H65            8.6731    -7.8376     2.0603 H       
  66 H66            7.9389    -7.8968     3.6807 H       
  67 H67            0.4964    -6.6741     4.1370 H       
  68 H68            1.8101    -7.7460     3.5951 H       
  69 H69            1.8596    -7.0312     5.2244 H       
@<TRIPOS>BOND
   1    1    2 2
   2    1    3 1
   3    1    6 1
   4    2    5 1
   5    3    4 2
   6    3   38 1
   7    4    5 1
   8    4   12 1
   9    5   13 1
  10    6    7 ar
  11    6   11 ar
  12    7    8 ar
  13    7   39 1
  14    8    9 ar
  15    8   40 1
  16    9   10 ar
  17    9   29 1
  18   10   11 ar
  19   10   30 1
  20   11   41 1
  21   12   22 ar
  22   12   26 ar
  23   13   14 1
  24   13   42 1
  25   13   43 1
  26   14   15 am
  27   14   16 2
  28   15   17 1
  29   15   21 1
  30   17   18 1
  31   17   44 1
  32   17   45 1
  33   18   19 1
  34   18   46 1
  35   18   47 1
  36   19   20 1
  37   19   27 1
  38   19   37 1
  39   20   21 1
  40   20   48 1
  41   20   49 1
  42   21   50 1
  43   21   51 1
  44   22   23 ar
  45   22   52 1
  46   23   24 ar
  47   23   53 1
  48   24   25 ar
  49   24   54 1
  50   25   26 ar
  51   25   55 1
  52   26   56 1
  53   27   28 1
  54   27   33 2
  55   28   31 1
  56   30   57 1
  57   30   58 1
  58   30   59 1
  59   31   32 2
  60   31   34 1
  61   32   33 1
  62   34   35 1
  63   34   36 1
  64   34   60 1
  65   35   61 1
  66   35   62 1
  67   35   63 1
  68   36   64 1
  69   36   65 1
  70   36   66 1
  71   37   67 1
  72   37   68 1
  73   37   69 1

#	End of record

