#	Name: ASD01890058
#	Creating user name:	WinNT
#	Creation time:	15. 06. 2019 19:50

#	Modifying user name:	WinNT
#	Modification time:	15. 06. 2019 19:50

#	Program:	/corina/corina34_cracker 3.40 0067  02.08.2006

@<TRIPOS>MOLECULE
ASD01890058
  45   46    0    0    0
SMALL
NO_CHARGES


@<TRIPOS>ATOM
   1 C1            -0.0184     1.5028     0.0103 C.2     
   2 C2             0.0021    -0.0041     0.0020 C.3     
   3 C3             1.4513    -0.4944    -0.0145 C.3     
   4 C4             1.4720    -2.0242    -0.0229 C.3     
   5 C5             2.8952    -2.5079     0.0848 C.2     
   6 O6             1.0197     2.1211     0.0037 O.2     
   7 O7            -1.1898     2.1580     0.0194 O.3     
   8 C8             2.1430     0.0242    -1.2488 C.ar    
   9 C9             3.2572     0.8334    -1.1283 C.ar    
  10 C10            3.8917     1.3091    -2.2605 C.ar    
  11 C11            3.4123     0.9752    -3.5133 C.ar    
  12 C12            2.2987     0.1652    -3.6339 C.ar    
  13 C13            1.6667    -0.3140    -2.5017 C.ar    
  14 O14            3.8034    -1.7079     0.1607 O.2     
  15 C15           -0.6897    -0.5226     1.2364 C.2     
  16 O16           -0.0855    -1.2135     2.0223 O.2     
  17 O17           -1.9770    -0.2170     1.4627 O.3     
  18 C18           -2.5785    -0.7510     2.6715 C.3     
  19 C19           -4.0379    -0.2997     2.7573 C.3     
  20 C20            3.1828    -3.9504     0.0977 C.ar    
  21 C21            4.5028    -4.4030     0.1975 C.ar    
  22 C22            4.7646    -5.7560     0.2095 C.ar    
  23 C23            3.7244    -6.6672     0.1226 C.ar    
  24 C24            2.4145    -6.2261     0.0230 C.ar    
  25 C25            2.1372    -4.8762     0.0161 C.ar    
  26 Cl26           4.0637    -8.3696     0.1379 Cl      
  27 H27           -0.5153    -0.3696    -0.8850 H       
  28 H28            1.9686    -0.1289     0.8726 H       
  29 H29            0.8956    -2.4001     0.8225 H       
  30 H30            1.0338    -2.3884    -0.9521 H       
  31 H31           -1.1523     3.1243     0.0245 H       
  32 H32            3.6318     1.0943    -0.1495 H       
  33 H33            4.7618     1.9420    -2.1663 H       
  34 H34            3.9076     1.3474    -4.3979 H       
  35 H35            1.9239    -0.0954    -4.6127 H       
  36 H36            0.7988    -0.9499    -2.5959 H       
  37 H37           -2.5358    -1.8400     2.6482 H       
  38 H38           -2.0332    -0.3846     3.5413 H       
  39 H39           -4.0807     0.7892     2.7806 H       
  40 H40           -4.5833    -0.6662     1.8875 H       
  41 H41           -4.4895    -0.7006     3.6647 H       
  42 H42            5.3146    -3.6939     0.2647 H       
  43 H43            5.7831    -6.1069     0.2865 H       
  44 H44            1.6087    -6.9420    -0.0448 H       
  45 H45            1.1155    -4.5338    -0.0570 H       
@<TRIPOS>BOND
   1    1    2 1
   2    1    6 2
   3    1    7 1
   4    2    3 1
   5    2   15 1
   6    2   27 1
   7    3    4 1
   8    3    8 1
   9    3   28 1
  10    4    5 1
  11    4   29 1
  12    4   30 1
  13    5   14 2
  14    5   20 1
  15    7   31 1
  16    8    9 ar
  17    8   13 ar
  18    9   10 ar
  19    9   32 1
  20   10   11 ar
  21   10   33 1
  22   11   12 ar
  23   11   34 1
  24   12   13 ar
  25   12   35 1
  26   13   36 1
  27   15   16 2
  28   15   17 1
  29   17   18 1
  30   18   19 1
  31   18   37 1
  32   18   38 1
  33   19   39 1
  34   19   40 1
  35   19   41 1
  36   20   21 ar
  37   20   25 ar
  38   21   22 ar
  39   21   42 1
  40   22   23 ar
  41   22   43 1
  42   23   24 ar
  43   23   26 1
  44   24   25 ar
  45   24   44 1
  46   25   45 1

#	End of record

