#	Name: ASD03731782
#	Creating user name:	WinNT
#	Creation time:	15. 06. 2019 20:46

#	Modifying user name:	WinNT
#	Modification time:	15. 06. 2019 20:46

#	Program:	/corina/corina34_cracker 3.40 0067  02.08.2006

@<TRIPOS>MOLECULE
ASD03731782
  43   45    0    0    0
SMALL
NO_CHARGES


@<TRIPOS>ATOM
   1 C1             0.1046     1.3993     0.8801 C.2     
   2 C2             0.0923    -0.0575     0.6428 C.ar    
   3 C3             0.2768    -0.9424     1.7084 C.ar    
   4 C4             0.2647    -2.3007     1.4831 C.ar    
   5 C5             0.0693    -2.7921     0.1973 C.ar    
   6 C6            -0.1142    -1.9149    -0.8655 C.ar    
   7 C7            -0.1096    -0.5554    -0.6472 C.ar    
   8 O8             0.2754     1.8308     2.0039 O.2     
   9 N9            -0.0680     2.2513    -0.1499 N.am    
  10 S10           -0.0542     3.8857     0.1163 S.o2    
  11 O11           -0.2870     4.4516    -1.1662 O.2     
  12 O12           -0.9779     4.0754     1.1794 O.2     
  13 C13            1.6362     4.2397     0.6711 C.3     
  14 O14            0.0581    -4.1313    -0.0208 O.3     
  15 C15           -3.5438    -6.1205     0.3196 C.ar    
  16 C16           -3.5004    -4.7315     0.4273 C.ar    
  17 C17           -2.2959    -4.0698     0.3134 C.ar    
  18 C18           -1.1271    -4.7859     0.0915 C.ar    
  19 C19           -1.1674    -6.1697    -0.0163 C.ar    
  20 C20           -2.3690    -6.8367     0.0969 C.ar    
  21 C21           -4.8373    -6.8357     0.4478 C.ar    
  22 C22           -4.8822    -8.2244     0.3403 C.ar    
  23 C23           -6.0881    -8.8846     0.4608 C.ar    
  24 C24           -7.2509    -8.1705     0.6875 C.ar    
  25 C25           -7.2123    -6.7919     0.7946 C.ar    
  26 C26           -6.0110    -6.1219     0.6819 C.ar    
  27 H27            0.4290    -0.5614     2.7075 H       
  28 H28            0.4076    -2.9852     2.3061 H       
  29 H29           -0.2650    -2.3004    -1.8630 H       
  30 H30           -0.2570     0.1253    -1.4726 H       
  31 H31           -0.2003     1.9071    -1.0471 H       
  32 H32            2.3423     3.9481    -0.1064 H       
  33 H33            1.7369     5.3063     0.8718 H       
  34 H34            1.8452     3.6774     1.5811 H       
  35 H35           -4.4092    -4.1740     0.5995 H       
  36 H36           -2.2617    -2.9935     0.3968 H       
  37 H37           -0.2568    -6.7241    -0.1888 H       
  38 H38           -2.3997    -7.9130     0.0133 H       
  39 H39           -3.9750    -8.7829     0.1626 H       
  40 H40           -6.1241    -9.9608     0.3777 H       
  41 H41           -8.1925    -8.6912     0.7808 H       
  42 H42           -8.1232    -6.2393     0.9713 H       
  43 H43           -5.9813    -5.0459     0.7702 H       
@<TRIPOS>BOND
   1    1    2 1
   2    1    8 2
   3    1    9 am
   4    2    3 ar
   5    2    7 ar
   6    3    4 ar
   7    3   27 1
   8    4    5 ar
   9    4   28 1
  10    5    6 ar
  11    5   14 1
  12    6    7 ar
  13    6   29 1
  14    7   30 1
  15    9   10 am
  16    9   31 1
  17   10   11 2
  18   10   12 2
  19   10   13 1
  20   13   32 1
  21   13   33 1
  22   13   34 1
  23   14   18 1
  24   15   16 ar
  25   15   20 ar
  26   15   21 1
  27   16   17 ar
  28   16   35 1
  29   17   18 ar
  30   17   36 1
  31   18   19 ar
  32   19   20 ar
  33   19   37 1
  34   20   38 1
  35   21   22 ar
  36   21   26 ar
  37   22   23 ar
  38   22   39 1
  39   23   24 ar
  40   23   40 1
  41   24   25 ar
  42   24   41 1
  43   25   26 ar
  44   25   42 1
  45   26   43 1

#	End of record

