#	Name: ASD02198078
#	Creating user name:	WinNT
#	Creation time:	15. 06. 2019 20:18

#	Modifying user name:	WinNT
#	Modification time:	15. 06. 2019 20:18

#	Program:	/corina/corina34_cracker 3.40 0067  02.08.2006

@<TRIPOS>MOLECULE
ASD02198078
  53   55    0    0    0
SMALL
NO_CHARGES


@<TRIPOS>ATOM
   1 C1             0.8537     1.4693    -0.5945 C.2     
   2 C2             1.1473     0.1406    -0.8158 C.2     
   3 C3             0.1408    -0.8641    -0.9828 C.1     
   4 S4             2.2807     2.3897    -0.4423 S.3     
   5 C5             3.2960     0.9761    -0.6781 C.2     
   6 C6             2.5128    -0.1362    -0.8627 C.2     
   7 C7             4.7075     0.9828    -0.6783 C.2     
   8 C8             5.4363     2.2414    -0.4692 C.2     
   9 O9             5.3227    -0.0571    -0.8521 O.2     
  10 N10            3.0281    -1.4070    -1.0740 N.pl3   
  11 N11           -0.4195     1.9842    -0.5134 N.pl3   
  12 N12           -0.6578    -1.6612    -1.1153 N.1     
  13 C13            6.7957     2.3693    -0.4492 C.2     
  14 C14            7.2478     3.6443    -0.2372 C.2     
  15 C15            6.2675     4.5794    -0.0804 C.2     
  16 S16            4.6905     3.8133    -0.2144 S.3     
  17 C17            6.4960     6.0188     0.1599 C.ar    
  18 C18            5.4060     6.8785     0.3041 C.ar    
  19 C19            5.6367     8.2242     0.5288 C.ar    
  20 C20            6.9496     8.6684     0.6024 C.ar    
  21 C21            7.9831     7.7617     0.4504 C.ar    
  22 N22            7.7378     6.4845     0.2427 N.ar    
  23 C23           -0.6184     3.3971    -0.1814 C.3     
  24 C24           -0.5786     4.2325    -1.4626 C.3     
  25 C25           -1.9558     3.5717     0.4907 C.2     
  26 O26           -2.3542     4.7910     0.8862 O.3     
  27 O27           -2.6696     2.6141     0.6737 O.2     
  28 C28           -0.6221     5.7192    -1.1036 C.3     
  29 C29            0.6248     6.0856    -0.2962 C.3     
  30 C30           -0.6624     6.5526    -2.3860 C.3     
  31 C31           -3.6539     4.8844     1.5266 C.3     
  32 H32            3.9881    -1.5435    -1.0969 H       
  33 H33            2.4282    -2.1590    -1.1988 H       
  34 H34           -1.1854     1.4117    -0.6761 H       
  35 H35            7.4618     1.5308    -0.5892 H       
  36 H36            8.2986     3.8901    -0.1968 H       
  37 H37            4.3969     6.4989     0.2408 H       
  38 H38            4.8135     8.9136     0.6441 H       
  39 H39            7.1623     9.7129     0.7765 H       
  40 H40            9.0055     8.1051     0.5073 H       
  41 H41            0.1726     3.7269     0.4921 H       
  42 H42            0.3401     4.0173    -2.0083 H       
  43 H43           -1.4378     3.9838    -2.0854 H       
  44 H44           -1.5128     5.9235    -0.5093 H       
  45 H45            1.5158     5.7824    -0.8461 H       
  46 H46            0.6480     7.1630    -0.1325 H       
  47 H47            0.5990     5.5725     0.6651 H       
  48 H48           -1.5507     6.2915    -2.9612 H       
  49 H49           -0.6935     7.6117    -2.1303 H       
  50 H50            0.2282     6.3483    -2.9803 H       
  51 H51           -4.4237     4.5334     0.8393 H       
  52 H52           -3.6611     4.2680     2.4256 H       
  53 H53           -3.8527     5.9218     1.7957 H       
@<TRIPOS>BOND
   1    1    2 2
   2    1    4 1
   3    1   11 1
   4    2    3 1
   5    2    6 1
   6    3   12 3
   7    4    5 1
   8    5    6 2
   9    5    7 1
  10    6   10 1
  11    7    8 1
  12    7    9 2
  13    8   13 2
  14    8   16 1
  15   10   32 1
  16   10   33 1
  17   11   23 1
  18   11   34 1
  19   13   14 1
  20   13   35 1
  21   14   15 2
  22   14   36 1
  23   15   16 1
  24   15   17 1
  25   17   18 ar
  26   17   22 ar
  27   18   19 ar
  28   18   37 1
  29   19   20 ar
  30   19   38 1
  31   20   21 ar
  32   20   39 1
  33   21   22 ar
  34   21   40 1
  35   23   24 1
  36   23   25 1
  37   23   41 1
  38   24   28 1
  39   24   42 1
  40   24   43 1
  41   25   26 1
  42   25   27 2
  43   26   31 1
  44   28   29 1
  45   28   30 1
  46   28   44 1
  47   29   45 1
  48   29   46 1
  49   29   47 1
  50   30   48 1
  51   30   49 1
  52   30   50 1
  53   31   51 1
  54   31   52 1
  55   31   53 1

#	End of record

