#	Name: ASD03330889
#	Creating user name:	WinNT
#	Creation time:	15. 06. 2019 20:38

#	Modifying user name:	WinNT
#	Modification time:	15. 06. 2019 20:38

#	Program:	/corina/corina34_cracker 3.40 0067  02.08.2006

@<TRIPOS>MOLECULE
ASD03330889
  64   66    0    0    0
SMALL
NO_CHARGES


@<TRIPOS>ATOM
   1 N1             0.0496     0.9431    -0.1407 N.pl3   
   2 C2            -0.0901    -0.3830     0.1241 C.2     
   3 C3             1.0164    -1.3159     0.5418 C.3     
   4 N4             1.7982    -0.6858     1.6171 N.3     
   5 C5             2.8881     0.1271     1.0738 C.3     
   6 C6             2.4825     0.7694    -0.2497 C.3     
   7 C7             1.2941     1.7088    -0.0274 C.3     
   8 C8            -1.1746     1.4164    -0.5139 C.2     
   9 N9            -2.0381     0.4295    -0.4645 N.2     
  10 C10           -1.4012    -0.6950    -0.0713 C.2     
  11 C11           -2.0151    -2.0220     0.1126 C.2     
  12 O12           -1.3332    -2.9630     0.4713 O.2     
  13 N13           -3.3321    -2.1929    -0.1169 N.am    
  14 C14            2.3102    -1.6933     2.5555 C.3     
  15 C15           -5.1777    -3.6172    -0.7910 C.2     
  16 C16           -3.9424    -3.5121     0.0658 C.3     
  17 C17           -4.3239    -3.6984     1.5357 C.3     
  18 C18           -5.3706    -2.6534     1.9273 C.3     
  19 O19           -5.7965    -2.6173    -1.0881 O.2     
  20 N20           -5.5948    -4.8223    -1.2272 N.am    
  21 C21           -6.8535    -4.9378    -1.9678 C.3     
  22 C22           -4.9020    -5.1003     1.7389 C.3     
  23 C23           -3.0806    -3.5277     2.4109 C.3     
  24 C24           -1.4778     2.8097    -0.9077 C.ar    
  25 C25           -2.2408     3.0651    -2.0491 C.ar    
  26 C26           -2.5221     4.3673    -2.4131 C.ar    
  27 C27           -2.0500     5.4196    -1.6507 C.ar    
  28 C28           -1.2910     5.1746    -0.5146 C.ar    
  29 C29           -1.0078     3.8726    -0.1373 C.ar    
  30 O30           -0.8297     6.2133     0.2310 O.3     
  31 C31           -1.1640     7.5297    -0.2134 C.3     
  32 F32           -2.5553     7.6739    -0.2388 F       
  33 F33           -0.6135     8.4714     0.6626 F       
  34 F34           -0.6506     7.7324    -1.4988 F       
  35 Cl35          -2.8346     1.7469    -3.0100 Cl      
  36 H36            0.5879    -2.2509     0.9028 H       
  37 H37            1.6651    -1.5165    -0.3109 H       
  38 H38            3.1419     0.9097     1.7888 H       
  39 H39            3.7607    -0.5059     0.9122 H       
  40 H40            3.3230     1.3366    -0.6498 H       
  41 H41            2.2014    -0.0090    -0.9591 H       
  42 H42            1.3069     2.4970    -0.7801 H       
  43 H43            1.3605     2.1514     0.9665 H       
  44 H44           -3.8759    -1.4424    -0.4031 H       
  45 H45            2.8945    -2.4343     2.0099 H       
  46 H46            2.9421    -1.2087     3.2998 H       
  47 H47            1.4741    -2.1845     3.0531 H       
  48 H48           -3.2312    -4.2850    -0.2258 H       
  49 H49           -6.2564    -2.7750     1.3038 H       
  50 H50           -5.6424    -2.7861     2.9745 H       
  51 H51           -4.9588    -1.6547     1.7826 H       
  52 H52           -5.0615    -5.6131    -1.0507 H       
  53 H53           -7.6753    -4.5843    -1.3450 H       
  54 H54           -6.7986    -4.3344    -2.8738 H       
  55 H55           -7.0231    -5.9807    -2.2355 H       
  56 H56           -4.1357    -5.8444     1.5214 H       
  57 H57           -5.2329    -5.2107     2.7715 H       
  58 H58           -5.7492    -5.2446     1.0684 H       
  59 H59           -2.6687    -2.5289     2.2661 H       
  60 H60           -3.3524    -3.6604     3.4581 H       
  61 H61           -2.3349    -4.2721     2.1319 H       
  62 H62           -3.1121     4.5641    -3.2959 H       
  63 H63           -2.2724     6.4360    -1.9402 H       
  64 H64           -0.4210     3.6811     0.7490 H       
@<TRIPOS>BOND
   1    1    2 1
   2    1    7 1
   3    1    8 1
   4    2    3 1
   5    2   10 2
   6    3    4 1
   7    3   36 1
   8    3   37 1
   9    4    5 1
  10    4   14 1
  11    5    6 1
  12    5   38 1
  13    5   39 1
  14    6    7 1
  15    6   40 1
  16    6   41 1
  17    7   42 1
  18    7   43 1
  19    8    9 2
  20    8   24 1
  21    9   10 1
  22   10   11 1
  23   11   12 2
  24   11   13 am
  25   13   16 1
  26   13   44 1
  27   14   45 1
  28   14   46 1
  29   14   47 1
  30   15   19 2
  31   15   20 am
  32   15   16 1
  33   16   17 1
  34   16   48 1
  35   17   18 1
  36   17   22 1
  37   17   23 1
  38   18   49 1
  39   18   50 1
  40   18   51 1
  41   20   21 1
  42   20   52 1
  43   21   53 1
  44   21   54 1
  45   21   55 1
  46   22   56 1
  47   22   57 1
  48   22   58 1
  49   23   59 1
  50   23   60 1
  51   23   61 1
  52   24   25 ar
  53   24   29 ar
  54   25   26 ar
  55   25   35 1
  56   26   27 ar
  57   26   62 1
  58   27   28 ar
  59   27   63 1
  60   28   29 ar
  61   28   30 1
  62   29   64 1
  63   30   31 1
  64   31   32 1
  65   31   33 1
  66   31   34 1

#	End of record

