#	Name: ASD05723021
#	Creating user name:	WinNT
#	Creation time:	15. 06. 2019 21:02

#	Modifying user name:	WinNT
#	Modification time:	15. 06. 2019 21:02

#	Program:	/corina/corina34_cracker 3.40 0067  02.08.2006

@<TRIPOS>MOLECULE
ASD05723021
  47   51    0    0    0
SMALL
NO_CHARGES


@<TRIPOS>ATOM
   1 C1            -0.1814     1.6318    -1.3637 C.ar    
   2 C2            -0.4345     0.6451    -2.3270 C.ar    
   3 C3            -1.5939    -0.0656    -2.3109 C.ar    
   4 C4            -2.5602     0.1811    -1.3219 C.ar    
   5 C5            -2.3113     1.1763    -0.3449 C.ar    
   6 C6            -1.1120     1.8949    -0.3717 C.ar    
   7 N7            -3.7064    -0.5160    -1.3013 N.ar    
   8 C8            -4.6305    -0.3161    -0.3981 C.ar    
   9 C9            -4.4675     0.6526     0.6106 C.ar    
  10 C10           -3.2910     1.4167     0.6467 C.ar    
  11 C11            1.0909     2.3930    -1.4030 C.ar    
  12 C12            1.1164     3.7428    -1.0639 C.ar    
  13 N13            2.2445     4.4237    -1.0979 N.ar    
  14 C14            3.3890     3.8589    -1.4516 C.ar    
  15 C15            3.4423     2.5129    -1.8042 C.ar    
  16 C16            2.2839     1.7625    -1.7763 C.ar    
  17 N17            4.5515     4.6194    -1.4716 N.pl3   
  18 C18           -5.4666     0.8718     1.5917 C.2     
  19 C19           -5.2600     1.8177     2.5431 C.2     
  20 C20           -4.0670     2.5686     2.5501 C.2     
  21 N21           -3.1146     2.3620     1.6200 N.am    
  22 O22           -3.8943     3.4154     3.4101 O.2     
  23 C23           -1.9385     3.1205     1.6482 C.ar    
  24 C24           -1.8890     4.3516     1.0077 C.ar    
  25 C25           -0.7269     5.0976     1.0373 C.ar    
  26 C26            0.3863     4.6198     1.7038 C.ar    
  27 C27            0.3403     3.3940     2.3427 C.ar    
  28 C28           -0.8202     2.6460     2.3217 C.ar    
  29 C29           -0.6721     6.4335     0.3420 C.3     
  30 F30           -1.0634     7.4391     1.2325 F       
  31 F31            0.6344     6.6792    -0.0938 F       
  32 F32           -1.5364     6.4225    -0.7580 F       
  33 H33            0.3012     0.4470    -3.0925 H       
  34 H34           -1.7722    -0.8217    -3.0612 H       
  35 H35           -0.9163     2.6548     0.3703 H       
  36 H36           -5.5356    -0.9046    -0.4265 H       
  37 H37            0.2022     4.2373    -0.7704 H       
  38 H38            4.3796     2.0603    -2.0921 H       
  39 H39            2.2960     0.7164    -2.0444 H       
  40 H40            4.5214     5.5577    -1.2274 H       
  41 H41            5.3931     4.2122    -1.7296 H       
  42 H42           -6.3795     0.2948     1.5823 H       
  43 H43           -6.0124     1.9958     3.2971 H       
  44 H44           -2.7581     4.7252     0.4866 H       
  45 H45            1.2939     5.2049     1.7252 H       
  46 H46            1.2117     3.0234     2.8622 H       
  47 H47           -0.8556     1.6890     2.8211 H       
@<TRIPOS>BOND
   1    1    2 ar
   2    1   11 1
   3    1    6 ar
   4    2    3 ar
   5    2   33 1
   6    3    4 ar
   7    3   34 1
   8    4    5 ar
   9    4    7 ar
  10    5    6 ar
  11    5   10 ar
  12    6   35 1
  13    7    8 ar
  14    8    9 ar
  15    8   36 1
  16    9   10 ar
  17    9   18 1
  18   10   21 1
  19   11   12 ar
  20   11   16 ar
  21   12   13 ar
  22   12   37 1
  23   13   14 ar
  24   14   15 ar
  25   14   17 1
  26   15   16 ar
  27   15   38 1
  28   16   39 1
  29   17   40 1
  30   17   41 1
  31   18   19 2
  32   18   42 1
  33   19   20 1
  34   19   43 1
  35   20   21 am
  36   20   22 2
  37   21   23 1
  38   23   24 ar
  39   23   28 ar
  40   24   25 ar
  41   24   44 1
  42   25   26 ar
  43   25   29 1
  44   26   27 ar
  45   26   45 1
  46   27   28 ar
  47   27   46 1
  48   28   47 1
  49   29   30 1
  50   29   31 1
  51   29   32 1

#	End of record

