#	Name: ASD02198461
#	Creating user name:	WinNT
#	Creation time:	15. 06. 2019 20:19

#	Modifying user name:	WinNT
#	Modification time:	15. 06. 2019 20:19

#	Program:	/corina/corina34_cracker 3.40 0067  02.08.2006

@<TRIPOS>MOLECULE
ASD02198461
  44   47    0    0    0
SMALL
NO_CHARGES


@<TRIPOS>ATOM
   1 C1            -0.4549     1.8677     0.1165 C.2     
   2 S2             1.3058     3.9731     0.0067 S.o2    
   3 C3             0.7858     2.2898     0.0323 C.2     
   4 N4             2.0327     4.2838     1.4618 N.am    
   5 O5             2.3257     4.0631    -0.9787 O.2     
   6 O6             0.1219     4.7583    -0.0262 O.2     
   7 C7             1.3019     4.1689     2.6459 C.ar    
   8 C8             1.8461     3.5006     3.7209 C.ar    
   9 C9             1.1084     3.3874     4.9101 C.ar    
  10 C10           -0.1850     3.9631     4.9852 C.ar    
  11 C11           -0.7096     4.6379     3.8693 C.ar    
  12 C12            0.0260     4.7388     2.7307 C.ar    
  13 C13            1.6289     2.7129     6.0285 C.ar    
  14 C14            0.8867     2.6215     7.1654 C.ar    
  15 C15           -0.3849     3.1875     7.2393 C.ar    
  16 C16           -0.9211     3.8478     6.1768 C.ar    
  17 C17           -0.7071     0.3931     0.1297 C.3     
  18 C18            0.5296    -0.3487    -0.4325 C.3     
  19 S19            1.8484     0.8697    -0.0507 S.3     
  20 C20            0.7620    -1.6493     0.2923 C.ar    
  21 N21            0.8888    -1.6686     1.6085 N.ar    
  22 C22            1.0929    -2.8090     2.2529 C.ar    
  23 N23            1.1775    -3.9642     1.6086 N.ar    
  24 C24            1.0594    -4.0142     0.2921 C.ar    
  25 C25            0.8396    -2.8409    -0.4122 C.ar    
  26 S26            1.2561    -2.7885     4.0072 S.3     
  27 C27            1.5073    -4.5535     4.3201 C.3     
  28 H28           -1.2739     2.5689     0.1793 H       
  29 H29            2.9662     4.5456     1.4915 H       
  30 H30            2.8326     3.0668     3.6492 H       
  31 H31           -1.6941     5.0793     3.9179 H       
  32 H32           -0.3827     5.2589     1.8770 H       
  33 H33            2.6126     2.2691     5.9855 H       
  34 H34            1.2886     2.1025     8.0230 H       
  35 H35           -0.9534     3.1005     8.1534 H       
  36 H36           -1.9077     4.2812     6.2492 H       
  37 H37           -0.8933     0.0655     1.1526 H       
  38 H38           -1.5772     0.1678    -0.4870 H       
  39 H39            0.4392    -0.5087    -1.5069 H       
  40 H40            1.1296    -4.9585    -0.2274 H       
  41 H41            0.7391    -2.8535    -1.4875 H       
  42 H42            1.6292    -4.7189     5.3906 H       
  43 H43            0.6427    -5.1126     3.9622 H       
  44 H44            2.4011    -4.8918     3.7961 H       
@<TRIPOS>BOND
   1    1   17 1
   2    1    3 2
   3    1   28 1
   4    2    3 1
   5    2    5 2
   6    2    6 2
   7    2    4 am
   8    3   19 1
   9    4    7 1
  10    4   29 1
  11    7    8 ar
  12    7   12 ar
  13    8    9 ar
  14    8   30 1
  15    9   10 ar
  16    9   13 ar
  17   10   11 ar
  18   10   16 ar
  19   11   12 ar
  20   11   31 1
  21   12   32 1
  22   13   14 ar
  23   13   33 1
  24   14   15 ar
  25   14   34 1
  26   15   16 ar
  27   15   35 1
  28   16   36 1
  29   17   18 1
  30   17   37 1
  31   17   38 1
  32   18   19 1
  33   18   20 1
  34   18   39 1
  35   20   21 ar
  36   20   25 ar
  37   21   22 ar
  38   22   23 ar
  39   22   26 1
  40   23   24 ar
  41   24   25 ar
  42   24   40 1
  43   25   41 1
  44   26   27 1
  45   27   42 1
  46   27   43 1
  47   27   44 1

#	End of record

