#	Name: ASD01148103
#	Creating user name:	WinNT
#	Creation time:	15. 06. 2019 19:02

#	Modifying user name:	WinNT
#	Modification time:	15. 06. 2019 19:02

#	Program:	/corina/corina34_cracker 3.40 0067  02.08.2006

@<TRIPOS>MOLECULE
ASD01148103
  38   38    0    0    0
SMALL
NO_CHARGES


@<TRIPOS>ATOM
   1 C1             0.0139     1.3796     0.2168 C.ar    
   2 C2             0.0296    -0.0012     0.2158 C.ar    
   3 C3             1.1839     2.0870    -0.0174 C.ar    
   4 C4             2.3704     1.4080    -0.2532 C.ar    
   5 C5             2.3876     0.0272    -0.2545 C.ar    
   6 C6             1.2169    -0.6815    -0.0197 C.ar    
   7 N7             1.2337    -2.0825    -0.0204 N.am    
   8 C8             2.3056    -2.7438     0.4592 C.2     
   9 C9            -1.2759     2.1181     0.4662 C.3     
  10 C10           -2.2973     1.7375    -0.6075 C.3     
  11 C11           -1.8210     1.7411     1.8452 C.3     
  12 C12            3.6408     2.1774    -0.5085 C.3     
  13 C13            4.6768     1.8200     0.5591 C.3     
  14 C14            4.1873     1.8153    -1.8910 C.3     
  15 O15            1.1678     3.4466    -0.0163 O.3     
  16 C16            2.2820    -4.2475     0.5560 C.3     
  17 O17            3.2894    -2.1287     0.8129 O.2     
  18 F18            3.4980    -4.7003     1.0790 F       
  19 F19            1.2363    -4.6443     1.3964 F       
  20 F20            2.0898    -4.7938    -0.7175 F       
  21 H21           -0.8813    -0.5519     0.3984 H       
  22 H22            3.3113    -0.5013    -0.4384 H       
  23 H23            0.4738    -2.5764    -0.3660 H       
  24 H24           -1.0927     3.1919     0.4290 H       
  25 H25           -2.4805     0.6636    -0.5703 H       
  26 H26           -3.2302     2.2716    -0.4271 H       
  27 H27           -1.9090     2.0060    -1.5899 H       
  28 H28           -1.0933     2.0122     2.6101 H       
  29 H29           -2.7538     2.2752     2.0256 H       
  30 H30           -2.0041     0.6672     1.8823 H       
  31 H31            3.4323     3.2465    -0.4689 H       
  32 H32            4.8854     0.7508     0.5195 H       
  33 H33            5.5957     2.3764     0.3744 H       
  34 H34            4.2875     2.0779     1.5440 H       
  35 H35            3.4492     2.0699    -2.6515 H       
  36 H36            5.1061     2.3718    -2.0756 H       
  37 H37            4.3958     0.7462    -1.9306 H       
  38 H38            1.3357     3.8413     0.8504 H       
@<TRIPOS>BOND
   1    1    2 ar
   2    1    3 ar
   3    1    9 1
   4    2    6 ar
   5    2   21 1
   6    3    4 ar
   7    3   15 1
   8    4    5 ar
   9    4   12 1
  10    5    6 ar
  11    5   22 1
  12    6    7 1
  13    7    8 am
  14    7   23 1
  15    8   16 1
  16    8   17 2
  17    9   10 1
  18    9   11 1
  19    9   24 1
  20   10   25 1
  21   10   26 1
  22   10   27 1
  23   11   28 1
  24   11   29 1
  25   11   30 1
  26   12   13 1
  27   12   14 1
  28   12   31 1
  29   13   32 1
  30   13   33 1
  31   13   34 1
  32   14   35 1
  33   14   36 1
  34   14   37 1
  35   15   38 1
  36   16   18 1
  37   16   19 1
  38   16   20 1

#	End of record

