#	Name: ASD01883742
#	Creating user name:	WinNT
#	Creation time:	15. 06. 2019 19:47

#	Modifying user name:	WinNT
#	Modification time:	15. 06. 2019 19:47

#	Program:	/corina/corina34_cracker 3.40 0067  02.08.2006

@<TRIPOS>MOLECULE
ASD01883742
  45   49    0    0    0
SMALL
NO_CHARGES


@<TRIPOS>ATOM
   1 C1            -0.3879     0.7580    -1.0877 C.2     
   2 C2             0.0021    -0.0041     0.0020 C.2     
   3 C3            -0.8459    -0.0687     1.1283 C.2     
   4 C4            -2.0139     0.6067     1.1274 C.2     
   5 N5            -2.3889     1.3521     0.0538 N.am    
   6 C6            -1.6061     1.4438    -1.0371 C.2     
   7 C7            -3.6641     2.0725     0.0875 C.3     
   8 C8            -3.4442     3.4721     0.6650 C.3     
   9 O9            -1.9647     2.1197    -1.9893 O.2     
  10 Cl10           0.6248     0.8659    -2.4936 Cl      
  11 N11            1.2035    -0.6910    -0.0141 N.pl3   
  12 C12            1.4150    -2.1544     0.0779 C.3     
  13 C13            2.6594    -2.3125     0.9779 C.3     
  14 C14            3.4209    -0.9775     0.8427 C.3     
  15 C15            2.5695    -0.1301    -0.1336 C.3     
  16 C16            2.8014    -1.3800     2.1825 C.3     
  17 C17            3.7403    -1.8042     3.2823 C.ar    
  18 C18            3.2613    -1.9941     4.5650 C.ar    
  19 C19            4.1226    -2.3832     5.5739 C.ar    
  20 C20            5.4627    -2.5827     5.2999 C.ar    
  21 C21            5.9415    -2.3937     4.0169 C.ar    
  22 C22            5.0795    -2.0088     3.0072 C.ar    
  23 H23            1.9121    -0.8399     2.5072 H       
  24 C24           -4.6389     4.4278     0.6754 C.3     
  25 C25           -4.1422     3.8098     1.9839 C.3     
  26 H26           -0.5609    -0.6572     1.9879 H       
  27 H27           -2.6600     0.5542     1.9912 H       
  28 H28           -4.0616     2.1552    -0.9241 H       
  29 H29           -4.3723     1.5286     0.7127 H       
  30 H30           -2.4574     3.9019     0.4930 H       
  31 H31            0.5508    -2.6352     0.5363 H       
  32 H32            1.6047    -2.5739    -0.9101 H       
  33 H33            3.1754    -3.2725     0.9625 H       
  34 H34            4.5042    -0.9430     0.7266 H       
  35 H35            2.9424    -0.2351    -1.1525 H       
  36 H36            2.5750     0.9173     0.1680 H       
  37 H37            2.2143    -1.8382     4.7791 H       
  38 H38            3.7485    -2.5309     6.5762 H       
  39 H39            6.1357    -2.8860     6.0882 H       
  40 H40            6.9886    -2.5493     3.8030 H       
  41 H41            5.4535    -1.8612     2.0049 H       
  42 H42           -4.4381     5.4864     0.5107 H       
  43 H43           -5.5816     4.0594     0.2708 H       
  44 H44           -4.7581     3.0349     2.4402 H       
  45 H45           -3.6145     4.4618     2.6800 H       
@<TRIPOS>BOND
   1    1    2 2
   2    1   10 1
   3    1    6 1
   4    2    3 1
   5    2   11 1
   6    3    4 2
   7    3   26 1
   8    4    5 1
   9    4   27 1
  10    5    6 am
  11    5    7 1
  12    6    9 2
  13    7    8 1
  14    7   28 1
  15    7   29 1
  16    8   24 1
  17    8   25 1
  18    8   30 1
  19   11   12 1
  20   11   15 1
  21   12   13 1
  22   12   31 1
  23   12   32 1
  24   13   14 1
  25   13   16 1
  26   13   33 1
  27   14   15 1
  28   14   16 1
  29   14   34 1
  30   15   35 1
  31   15   36 1
  32   16   17 1
  33   16   23 1
  34   17   18 ar
  35   17   22 ar
  36   18   19 ar
  37   18   37 1
  38   19   20 ar
  39   19   38 1
  40   20   21 ar
  41   20   39 1
  42   21   22 ar
  43   21   40 1
  44   22   41 1
  45   24   25 1
  46   24   42 1
  47   24   43 1
  48   25   44 1
  49   25   45 1

#	End of record

