#	Name: ASD01140466
#	Creating user name:	WinNT
#	Creation time:	15. 06. 2019 19:00

#	Modifying user name:	WinNT
#	Modification time:	15. 06. 2019 19:00

#	Program:	/corina/corina34_cracker 3.40 0067  02.08.2006

@<TRIPOS>MOLECULE
ASD01140466
 121  123    0    0    0
SMALL
NO_CHARGES


@<TRIPOS>ATOM
   1 C1             0.4782    -1.2118    -3.1746 C.3     
   2 C2             0.9293    -2.4350    -2.4168 C.2     
   3 C3             0.9869    -2.4676    -0.9119 C.3     
   4 C4             3.7372    -0.1727     3.2389 C.3     
   5 C5             1.4857    -0.0837    -2.9785 C.3     
   6 C6             0.8619     1.2959    -3.1513 C.3     
   7 C7             3.2416     2.0169    -0.8488 C.2     
   8 O8             2.0748     2.4212    -1.3747 O.3     
   9 C9             1.9164     2.3655    -2.8159 C.3     
  10 C10            2.2518    -1.7677    -0.4246 C.3     
  11 C11            2.9579    -2.5484     0.6751 C.3     
  12 C12            4.0733    -1.6929     1.2838 C.3     
  13 C13            3.5465    -0.3291     1.7266 C.3     
  14 C14            4.3319     0.7678     1.0014 C.3     
  15 C15            3.4018     1.9278     0.6486 C.3     
  16 O16            4.6041    -2.3800     2.4198 O.3     
  17 O17            5.3658     1.2463     1.8667 O.3     
  18 C18            3.8131    -3.4899     2.8496 C.3     
  19 C19            1.4490     3.7239    -3.3396 C.3     
  20 C20           -0.2515    -1.7693    -0.3425 C.3     
  21 O21            3.5467    -3.7314     0.1153 O.3     
  22 C22            0.4133    -1.5738    -4.6659 C.3     
  23 O23            0.4210     1.4892    -4.4927 O.3     
  24 O24            2.5417    -0.2325    -3.9328 O.3     
  25 C25            3.9816     3.2467     1.1678 C.3     
  26 C26            6.6368     0.6301     1.6498 C.3     
  27 O27            3.7596    -4.4682     1.8093 O.3     
  28 C28            5.0383    -4.9651     1.4093 C.3     
  29 C29            5.7157    -5.6452     2.6020 C.3     
  30 C30            5.8357    -4.6406     3.7521 C.3     
  31 C31            4.4413    -4.1107     4.1001 C.3     
  32 O32            7.2046     1.1237     0.4349 O.3     
  33 C33            7.5698     0.9592     2.8181 C.3     
  34 C34            8.9475     0.3458     2.5495 C.3     
  35 C35            9.4787     0.8760     1.2142 C.3     
  36 C36            8.4719     0.5501     0.1079 C.3     
  37 O37            8.8333    -1.0772     2.4875 O.3     
  38 O38           10.7312     0.2551     0.9182 O.3     
  39 C39            8.9669     1.1291    -1.2191 C.3     
  40 C40            4.8605    -5.9789     0.2773 C.3     
  41 N41            6.4161    -5.3053     4.9266 N.3     
  42 O42            4.5490    -3.1187     5.1231 O.3     
  43 C43            5.7407    -6.5816     5.1965 C.3     
  44 C44            7.8626    -5.5000     4.7601 C.3     
  45 O45            4.1584     1.7098    -1.5631 O.2     
  46 O46            1.2566    -3.4220    -3.0405 O.2     
  47 C47           -0.3133     1.4910    -2.1890 C.3     
  48 C48            2.5413     4.7674    -3.0969 C.3     
  49 C49            4.3944    -3.4831    -1.0080 C.3     
  50 C50            1.9877    -2.9598     1.7826 C.3     
  51 C51            9.9085     0.7336     3.6751 C.3     
  52 C52            8.3340    -1.6731     3.6865 C.3     
  53 H53           -0.5210    -0.9324    -2.8472 H       
  54 H54            0.9837    -3.5142    -0.5926 H       
  55 H55            4.7845    -0.3379     3.4920 H       
  56 H56            3.4450     0.8334     3.5398 H       
  57 H57            3.1178    -0.9023     3.7606 H       
  58 H58            1.9181    -0.1517    -1.9732 H       
  59 H59            2.8577     2.0973    -3.2830 H       
  60 H60            2.9426    -1.6760    -1.2780 H       
  61 H61            1.9988    -0.7591    -0.0900 H       
  62 H62            4.8659    -1.5539     0.5432 H       
  63 H63            2.4868    -0.2395     1.4967 H       
  64 H64            4.7724     0.3578     0.0898 H       
  65 H65            2.4198     1.7564     1.0931 H       
  66 H66            2.8038    -3.1492     3.0805 H       
  67 H67            1.2468     3.6513    -4.4082 H       
  68 H68            0.5398     4.0214    -2.8172 H       
  69 H69           -1.1488    -2.2850    -0.6844 H       
  70 H70           -0.2125    -1.7913     0.7466 H       
  71 H71           -0.2745    -0.7345    -0.6844 H       
  72 H72           -0.2953    -2.3891    -4.8114 H       
  73 H73            0.0888    -0.7040    -5.2372 H       
  74 H74            1.4005    -1.8851    -5.0075 H       
  75 H75            0.0165     2.3527    -4.6533 H       
  76 H76            3.0236    -1.0677    -3.8592 H       
  77 H77            4.9924     3.3763     0.7810 H       
  78 H78            3.3561     4.0747     0.8345 H       
  79 H79            4.0091     3.2276     2.2572 H       
  80 H80            6.5097    -0.4502     1.5792 H       
  81 H81            5.6577    -4.1379     1.0627 H       
  82 H82            5.1171    -6.4974     2.9236 H       
  83 H83            6.7093    -5.9860     2.3109 H       
  84 H84            6.4751    -3.8121     3.4474 H       
  85 H85            3.8169    -4.9319     4.4520 H       
  86 H86            7.6651     2.0407     2.9146 H       
  87 H87            7.1600     0.5450     3.7393 H       
  88 H88            9.6125     1.9559     1.2784 H       
  89 H89            8.3690    -0.5312     0.0170 H       
  90 H90           11.1264     0.5447     0.0845 H       
  91 H91            9.0702     2.2103    -1.1277 H       
  92 H92            9.9336     0.6915    -1.4683 H       
  93 H93            8.2495     0.8978    -2.0065 H       
  94 H94            4.3772    -5.4948    -0.5713 H       
  95 H95            5.8359    -6.3579    -0.0276 H       
  96 H96            4.2415    -6.8063     0.6245 H       
  97 H97            3.7019    -2.7388     5.3933 H       
  98 H98            5.8485    -7.2392     4.3339 H       
  99 H99            6.1899    -7.0526     6.0708 H       
 100 H100           4.6826    -6.4000     5.3849 H       
 101 H101           8.3356    -4.5422     4.5436 H       
 102 H102           8.2816    -5.9129     5.6777 H       
 103 H103           8.0438    -6.1894     3.9355 H       
 104 H104           0.0379     1.3923    -1.1618 H       
 105 H105          -0.7401     2.4835    -2.3332 H       
 106 H106          -1.0742     0.7360    -2.3869 H       
 107 H107           2.7435     4.8400    -2.0283 H       
 108 H108           3.4505     4.4699    -3.6193 H       
 109 H109           2.2081     5.7357    -3.4703 H       
 110 H110           4.8778    -4.4119    -1.3107 H       
 111 H111           3.7981    -3.0976    -1.8350 H       
 112 H112           5.1538    -2.7504    -0.7351 H       
 113 H113           1.0141    -3.1856     1.3475 H       
 114 H114           2.3716    -3.8435     2.2923 H       
 115 H115           1.8855    -2.1436     2.4978 H       
 116 H116           9.5248     0.3614     4.6249 H       
 117 H117          10.8884     0.2966     3.4828 H       
 118 H118           9.9972     1.8191     3.7193 H       
 119 H119           9.0038    -1.4400     4.5143 H       
 120 H120           7.3404    -1.2798     3.9012 H       
 121 H121           8.2771    -2.7541     3.5586 H       
@<TRIPOS>BOND
   1    1    2 1
   2    1    5 1
   3    1   22 1
   4    1   53 1
   5    2    3 1
   6    2   46 2
   7    3   10 1
   8    3   20 1
   9    3   54 1
  10    4   13 1
  11    4   55 1
  12    4   56 1
  13    4   57 1
  14    5    6 1
  15    5   24 1
  16    5   58 1
  17    6   23 1
  18    6   47 1
  19    6    9 1
  20    7    8 1
  21    7   45 2
  22    7   15 1
  23    8    9 1
  24    9   19 1
  25    9   59 1
  26   10   11 1
  27   10   60 1
  28   10   61 1
  29   11   21 1
  30   11   50 1
  31   11   12 1
  32   12   13 1
  33   12   16 1
  34   12   62 1
  35   13   14 1
  36   13   63 1
  37   14   15 1
  38   14   17 1
  39   14   64 1
  40   15   25 1
  41   15   65 1
  42   16   18 1
  43   17   26 1
  44   18   27 1
  45   18   31 1
  46   18   66 1
  47   19   48 1
  48   19   67 1
  49   19   68 1
  50   20   69 1
  51   20   70 1
  52   20   71 1
  53   21   49 1
  54   22   72 1
  55   22   73 1
  56   22   74 1
  57   23   75 1
  58   24   76 1
  59   25   77 1
  60   25   78 1
  61   25   79 1
  62   26   33 1
  63   26   32 1
  64   26   80 1
  65   27   28 1
  66   28   29 1
  67   28   40 1
  68   28   81 1
  69   29   30 1
  70   29   82 1
  71   29   83 1
  72   30   31 1
  73   30   41 1
  74   30   84 1
  75   31   42 1
  76   31   85 1
  77   32   36 1
  78   33   34 1
  79   33   86 1
  80   33   87 1
  81   34   37 1
  82   34   51 1
  83   34   35 1
  84   35   36 1
  85   35   38 1
  86   35   88 1
  87   36   39 1
  88   36   89 1
  89   37   52 1
  90   38   90 1
  91   39   91 1
  92   39   92 1
  93   39   93 1
  94   40   94 1
  95   40   95 1
  96   40   96 1
  97   41   43 1
  98   41   44 1
  99   42   97 1
 100   43   98 1
 101   43   99 1
 102   43  100 1
 103   44  101 1
 104   44  102 1
 105   44  103 1
 106   47  104 1
 107   47  105 1
 108   47  106 1
 109   48  107 1
 110   48  108 1
 111   48  109 1
 112   49  110 1
 113   49  111 1
 114   49  112 1
 115   50  113 1
 116   50  114 1
 117   50  115 1
 118   51  116 1
 119   51  117 1
 120   51  118 1
 121   52  119 1
 122   52  120 1
 123   52  121 1

#	End of record

