#	Name: ASD01901512
#	Creating user name:	WinNT
#	Creation time:	15. 06. 2019 19:53

#	Modifying user name:	WinNT
#	Modification time:	15. 06. 2019 19:53

#	Program:	/corina/corina34_cracker 3.40 0067  02.08.2006

@<TRIPOS>MOLECULE
ASD01901512
  43   46    0    0    0
SMALL
NO_CHARGES


@<TRIPOS>ATOM
   1 F1            -0.0102     0.0094    -0.0064 F       
   2 C2            -0.0339     1.4081     0.0031 C.3     
   3 F3             1.2768     1.8969    -0.0106 F       
   4 F4            -0.7159     1.8706    -1.1275 F       
   5 C5            -0.7369     1.8902     1.2459 C.ar    
   6 C6            -1.2288     0.9804     2.1566 C.ar    
   7 C7            -1.8779     1.4246     3.3032 C.ar    
   8 N8            -2.3756     0.5011     4.2247 N.am    
   9 C9            -2.3536     0.7848     5.5421 C.2     
  10 O10           -1.8140     1.7999     5.9361 O.2     
  11 C11           -2.9872    -0.1406     6.5097 C.ar    
  12 C12           -2.9661     0.1612     7.8694 C.ar    
  13 C13           -3.5632    -0.7145     8.7628 C.ar    
  14 C14           -4.1607    -1.8616     8.2648 C.ar    
  15 C15           -4.1442    -2.0983     6.8993 C.ar    
  16 N16           -3.5753    -1.2479     6.0733 N.ar    
  17 C17           -2.0317     2.7868     3.5336 C.ar    
  18 C18           -1.5411     3.7002     2.6252 C.ar    
  19 C19           -0.8850     3.2570     1.4779 C.ar    
  20 C20           -0.3508     4.2383     0.5019 C.2     
  21 N21            0.2723     3.9601    -0.6151 N.2     
  22 O22            0.5831     4.9818    -1.1898 O.3     
  23 C23            0.1794     6.0469    -0.4799 C.2     
  24 N24           -0.4229     5.5825     0.5988 N.2     
  25 C25            0.3677     7.4677    -0.8403 C.ar    
  26 C26           -0.1034     8.4736     0.0047 C.ar    
  27 C27            0.0755     9.7981    -0.3375 C.ar    
  28 C28            0.7198    10.1310    -1.5158 C.ar    
  29 C29            1.1892     9.1400    -2.3590 C.ar    
  30 C30            1.0230     7.8102    -2.0257 C.ar    
  31 Cl31           1.6199     6.5674    -3.0806 Cl      
  32 H32           -1.1104    -0.0784     1.9794 H       
  33 H33           -2.7372    -0.3447     3.9168 H       
  34 H34           -2.4909     1.0644     8.2226 H       
  35 H35           -3.5625    -0.5078     9.8228 H       
  36 H36           -4.6343    -2.5644     8.9344 H       
  37 H37           -4.6089    -2.9912     6.5079 H       
  38 H38           -2.5362     3.1298     4.4248 H       
  39 H39           -1.6610     4.7584     2.8044 H       
  40 H40           -0.6072     8.2157     0.9245 H       
  41 H41           -0.2887    10.5771     0.3158 H       
  42 H42            0.8566    11.1696    -1.7786 H       
  43 H43            1.6907     9.4068    -3.2776 H       
@<TRIPOS>BOND
   1    1    2 1
   2    2    3 1
   3    2    4 1
   4    2    5 1
   5    5   19 ar
   6    5    6 ar
   7    6    7 ar
   8    6   32 1
   9    7    8 1
  10    7   17 ar
  11    8    9 am
  12    8   33 1
  13    9   10 2
  14    9   11 1
  15   11   16 ar
  16   11   12 ar
  17   12   13 ar
  18   12   34 1
  19   13   14 ar
  20   13   35 1
  21   14   15 ar
  22   14   36 1
  23   15   16 ar
  24   15   37 1
  25   17   18 ar
  26   17   38 1
  27   18   19 ar
  28   18   39 1
  29   19   20 1
  30   20   24 1
  31   20   21 2
  32   21   22 1
  33   22   23 1
  34   23   24 2
  35   23   25 1
  36   25   30 ar
  37   25   26 ar
  38   26   27 ar
  39   26   40 1
  40   27   28 ar
  41   27   41 1
  42   28   29 ar
  43   28   42 1
  44   29   30 ar
  45   29   43 1
  46   30   31 1

#	End of record

