#	Name: ASD07300320
#	Creating user name:	WinNT
#	Creation time:	15. 06. 2019 21:09

#	Modifying user name:	WinNT
#	Modification time:	15. 06. 2019 21:09

#	Program:	/corina/corina34_cracker 3.40 0067  02.08.2006

@<TRIPOS>MOLECULE
ASD07300320
  51   54    0    0    0
SMALL
NO_CHARGES


@<TRIPOS>ATOM
   1 C1            -0.0169     1.3941     0.0097 C.ar    
   2 C2             0.0021    -0.0041     0.0020 C.ar    
   3 C3             1.2199    -0.6674    -0.0136 C.ar    
   4 C4             2.3808     0.0923    -0.0210 C.ar    
   5 C5             2.2878     1.4713    -0.0127 C.ar    
   6 N6             1.1161     2.0768     0.0026 N.ar    
   7 C7            -2.1139     0.6622     0.0347 C.2     
   8 N8            -1.3542     1.7734     0.0301 N.am    
   9 N9            -1.3234    -0.4279     0.0129 N.am    
  10 O10           -3.3304     0.6453     0.0517 O.2     
  11 C11           -1.7801    -1.8199     0.0099 C.3     
  12 C12           -2.6120    -2.0864     1.2661 C.3     
  13 C13           -2.6367    -2.0731    -1.2323 C.3     
  14 C14            3.7298    -0.5793    -0.0375 C.3     
  15 C15           -1.8317     3.0925     0.0437 C.ar    
  16 C16           -3.1983     3.3361     0.0638 C.ar    
  17 C17           -3.6677     4.6347     0.0777 C.ar    
  18 C18           -2.7741     5.6957     0.0715 C.ar    
  19 C19           -1.4084     5.4528     0.0509 C.ar    
  20 C20           -0.9378     4.1546     0.0429 C.ar    
  21 O21           -3.2368     6.9741     0.0851 O.3     
  22 C22           -2.2605     8.0176     0.0777 C.3     
  23 C23           -2.9547     9.3551     0.0948 C.ar    
  24 C24           -3.2566     9.9617     1.2997 C.ar    
  25 C25           -3.8934    11.1885     1.3155 C.ar    
  26 C26           -4.2278    11.8090     0.1263 C.ar    
  27 C27           -3.9250    11.2028    -1.0786 C.ar    
  28 C28           -3.2844     9.9780    -1.0944 C.ar    
  29 H29            1.2635    -1.7465    -0.0195 H       
  30 H30            3.1908     2.0638    -0.0181 H       
  31 H31           -0.9169    -2.4855    -0.0022 H       
  32 H32           -3.4751    -1.4209     1.2782 H       
  33 H33           -2.9517    -3.1221     1.2639 H       
  34 H34           -2.0017    -1.9061     2.1510 H       
  35 H35           -2.0440    -1.8832    -2.1271 H       
  36 H36           -2.9764    -3.1088    -1.2344 H       
  37 H37           -3.4998    -1.4076    -1.2202 H       
  38 H38            4.0450    -0.7361    -1.0690 H       
  39 H39            4.4567     0.0528     0.4725 H       
  40 H40            3.6633    -1.5405     0.4722 H       
  41 H41           -3.8941     2.5102     0.0683 H       
  42 H42           -4.7308     4.8243     0.0929 H       
  43 H43           -0.7131     6.2792     0.0454 H       
  44 H44            0.1255     3.9656     0.0317 H       
  45 H45           -1.6250     7.9268     0.9586 H       
  46 H46           -1.6493     7.9369    -0.8212 H       
  47 H47           -2.9954     9.4769     2.2288 H       
  48 H48           -4.1300    11.6621     2.2568 H       
  49 H49           -4.7259    12.7672     0.1386 H       
  50 H50           -4.1866    11.6874    -2.0077 H       
  51 H51           -3.0445     9.5061    -2.0357 H       
@<TRIPOS>BOND
   1    1    2 ar
   2    1    6 ar
   3    1    8 1
   4    2    3 ar
   5    2    9 1
   6    3    4 ar
   7    3   29 1
   8    4    5 ar
   9    4   14 1
  10    5    6 ar
  11    5   30 1
  12    7    8 am
  13    7    9 am
  14    7   10 2
  15    8   15 1
  16    9   11 1
  17   11   12 1
  18   11   13 1
  19   11   31 1
  20   12   32 1
  21   12   33 1
  22   12   34 1
  23   13   35 1
  24   13   36 1
  25   13   37 1
  26   14   38 1
  27   14   39 1
  28   14   40 1
  29   15   16 ar
  30   15   20 ar
  31   16   17 ar
  32   16   41 1
  33   17   18 ar
  34   17   42 1
  35   18   19 ar
  36   18   21 1
  37   19   20 ar
  38   19   43 1
  39   20   44 1
  40   21   22 1
  41   22   23 1
  42   22   45 1
  43   22   46 1
  44   23   24 ar
  45   23   28 ar
  46   24   25 ar
  47   24   47 1
  48   25   26 ar
  49   25   48 1
  50   26   27 ar
  51   26   49 1
  52   27   28 ar
  53   27   50 1
  54   28   51 1

#	End of record

