#	Name: ASD07930619
#	Creating user name:	WinNT
#	Creation time:	15. 06. 2019 21:12

#	Modifying user name:	WinNT
#	Modification time:	15. 06. 2019 21:12

#	Program:	/corina/corina34_cracker 3.40 0067  02.08.2006

@<TRIPOS>MOLECULE
ASD07930619
  45   47    0    0    0
SMALL
NO_CHARGES


@<TRIPOS>ATOM
   1 C1             1.3695     0.7526    -1.5472 C.3     
   2 N2             2.3133    -2.0773    -1.4375 N.2     
   3 N3             0.0354    -2.5823    -1.3054 N.pl3   
   4 C4            -0.8997    -2.7428    -0.1870 C.3     
   5 C5            -1.5452    -1.3872     0.1316 C.3     
   6 S6            -0.2179    -0.1886     0.4724 S.o2    
   7 N7             0.8029    -0.3916    -0.8289 N.am    
   8 C8             1.0894    -1.6980    -1.1989 C.2     
   9 C9            -0.1435    -3.2502     1.0425 C.3     
  10 C10           -1.9705    -3.7337    -0.5646 C.ar    
  11 C11           -1.6886    -4.7476    -1.4614 C.ar    
  12 C12           -2.6781    -5.6613    -1.8088 C.ar    
  13 C13           -3.9455    -5.5524    -1.2541 C.ar    
  14 C14           -4.2222    -4.5374    -0.3583 C.ar    
  15 C15           -3.2350    -3.6319    -0.0088 C.ar    
  16 O16           -0.6967     1.1434     0.3468 O.2     
  17 O17            0.5511    -0.5938     1.5966 O.2     
  18 N18           -2.3960    -6.6892    -2.7173 N.am    
  19 C19           -3.3926    -7.2516    -3.4294 C.2     
  20 O20           -4.5199    -6.8022    -3.3571 O.2     
  21 C21           -3.1149    -8.4151    -4.2983 C.ar    
  22 C22           -4.1518    -8.9933    -5.0336 C.ar    
  23 F23           -3.5086    -2.6409     0.8677 F       
  24 C24           -3.8748   -10.0849    -5.8453 C.ar    
  25 C25           -1.5898    -9.9299    -5.1374 C.ar    
  26 N26           -1.8799    -8.8983    -4.3774 N.ar    
  27 F27           -5.4063    -8.4979    -4.9558 F       
  28 C28           -2.5721   -10.5593    -5.8930 C.ar    
  29 F29           -2.2602   -11.6197    -6.6699 F       
  30 F30           -0.4538    -4.8503    -1.9999 F       
  31 H31            2.3185     1.0343    -1.0909 H       
  32 H32            1.5341     0.4816    -2.5901 H       
  33 H33            0.6776     1.5932    -1.4951 H       
  34 H34            3.0422    -1.4422    -1.3575 H       
  35 H35           -0.0844    -3.0998    -2.1170 H       
  36 H36           -2.1337    -1.0508    -0.7220 H       
  37 H37           -2.1877    -1.4827     1.0069 H       
  38 H38            0.6913    -2.5827     1.2567 H       
  39 H39           -0.8174    -3.2753     1.8988 H       
  40 H40            0.2345    -4.2538     0.8481 H       
  41 H41           -4.7154    -6.2606    -1.5227 H       
  42 H42           -5.2086    -4.4530     0.0732 H       
  43 H43           -1.4834    -6.9964    -2.8341 H       
  44 H44           -4.6554   -10.5541    -6.4257 H       
  45 H45           -0.5737   -10.2938    -5.1758 H       
@<TRIPOS>BOND
   1    1    7 1
   2    1   31 1
   3    1   32 1
   4    1   33 1
   5    2    8 2
   6    2   34 1
   7    3    4 1
   8    3    8 1
   9    3   35 1
  10    4    5 1
  11    4    9 1
  12    4   10 1
  13    5    6 1
  14    5   36 1
  15    5   37 1
  16    6    7 am
  17    6   16 2
  18    6   17 2
  19    7    8 1
  20    9   38 1
  21    9   39 1
  22    9   40 1
  23   10   11 ar
  24   10   15 ar
  25   11   12 ar
  26   11   30 1
  27   12   13 ar
  28   12   18 1
  29   13   14 ar
  30   13   41 1
  31   14   15 ar
  32   14   42 1
  33   15   23 1
  34   18   19 am
  35   18   43 1
  36   19   20 2
  37   19   21 1
  38   21   22 ar
  39   21   26 ar
  40   22   24 ar
  41   22   27 1
  42   24   28 ar
  43   24   44 1
  44   25   26 ar
  45   25   28 ar
  46   25   45 1
  47   28   29 1

#	End of record

