#	Name: ASD05250002
#	Creating user name:	WinNT
#	Creation time:	15. 06. 2019 20:57

#	Modifying user name:	WinNT
#	Modification time:	15. 06. 2019 20:57

#	Program:	/corina/corina34_cracker 3.40 0067  02.08.2006

@<TRIPOS>MOLECULE
ASD05250002
  65   69    0    0    0
SMALL
NO_CHARGES


@<TRIPOS>ATOM
   1 C1            -0.1707     1.4693    -0.5486 C.2     
   2 C2            -0.1483    -0.0064    -0.5453 C.ar    
   3 C3             0.9103    -0.6915    -1.1470 C.ar    
   4 C4             0.9288    -2.0737    -1.1425 C.ar    
   5 C5            -0.1064    -2.7831    -0.5396 C.ar    
   6 C6            -1.1628    -2.1027     0.0604 C.ar    
   7 C7            -1.1827    -0.7205     0.0645 C.ar    
   8 O8             0.7327     2.0899    -1.0753 O.2     
   9 N9            -1.1952     2.1290     0.0273 N.am    
  10 C10           -1.1628     3.5228     0.1234 C.ar    
  11 C11           -2.3471     4.2621     0.0195 C.ar    
  12 C12           -2.3040     5.6504     0.1166 C.ar    
  13 C13           -1.0966     6.2904     0.3146 C.ar    
  14 C14            0.0725     5.5577     0.4166 C.ar    
  15 C15            0.0417     4.1787     0.3279 C.ar    
  16 S16           -6.2782     0.7217    -0.8390 S.3     
  17 C17           -5.0863     1.9982    -0.5489 C.2     
  18 N18           -5.7988     3.1536    -0.4406 N.pl3   
  19 C19           -7.1623     3.0235    -0.5775 C.2     
  20 C20           -7.6669     1.8223    -0.7970 C.2     
  21 N21           -3.8073     2.2487    -0.4020 N.2     
  22 C22           -3.6413     3.5698    -0.1937 C.2     
  23 C23           -4.8634     4.1555    -0.2129 C.2     
  24 C24           -8.0624     4.2280    -0.4776 C.3     
  25 N25           -8.3760     4.4892     0.9336 N.3     
  26 C26           -9.0514     5.7847     1.0920 C.3     
  27 C27           -9.4312     5.9827     2.5613 C.3     
  28 N28           -8.2197     5.9188     3.3906 N.3     
  29 C29           -7.5443     4.6233     3.2323 C.3     
  30 C30           -7.1645     4.4252     1.7629 C.3     
  31 O31           -2.1729    -2.7986     0.6477 O.3     
  32 C32           -3.2245    -2.0366     1.2441 C.3     
  33 O33           -0.0861    -4.1419    -0.5369 O.3     
  34 C34            0.5585    -4.7789     0.5679 C.3     
  35 O35            1.9589    -2.7412    -1.7281 O.3     
  36 C36            2.9868    -1.9504    -2.3282 C.3     
  37 H37            1.7132    -0.1417    -1.6155 H       
  38 H38           -1.9999    -0.1932     0.5342 H       
  39 H39           -1.9550     1.6363     0.3750 H       
  40 H40           -3.2142     6.2262     0.0368 H       
  41 H41           -1.0647     7.3673     0.3897 H       
  42 H42            1.0132     6.0654     0.5707 H       
  43 H43            0.9570     3.6119     0.4135 H       
  44 H44           -8.7080     1.5650    -0.9247 H       
  45 H45           -5.0716     5.2065    -0.0768 H       
  46 H46           -7.5579     5.0950    -0.9041 H       
  47 H47           -8.9852     4.0385    -1.0258 H       
  48 H48           -8.3810     6.5850     0.7786 H       
  49 H49           -9.9519     5.8028     0.4780 H       
  50 H50           -9.9064     6.9557     2.6861 H       
  51 H51          -10.1230     5.1979     2.8671 H       
  52 H52           -7.5943     6.6811     3.1766 H       
  53 H53           -6.6439     4.6051     3.8463 H       
  54 H54           -8.2147     3.8230     3.5457 H       
  55 H55           -6.6893     3.4522     1.6381 H       
  56 H56           -6.4727     5.2101     1.4572 H       
  57 H57           -3.6995    -1.4161     0.4843 H       
  58 H58           -3.9632    -2.7122     1.6753 H       
  59 H59           -2.8129    -1.4004     2.0276 H       
  60 H60            1.6032    -4.4702     0.6064 H       
  61 H61            0.0605    -4.4917     1.4940 H       
  62 H62            0.5035    -5.8607     0.4462 H       
  63 H63            3.4435    -1.3130    -1.5712 H       
  64 H64            3.7451    -2.6053    -2.7575 H       
  65 H65            2.5557    -1.3298    -3.1138 H       
@<TRIPOS>BOND
   1    1    2 1
   2    1    8 2
   3    1    9 am
   4    2    3 ar
   5    2    7 ar
   6    3    4 ar
   7    3   37 1
   8    4    5 ar
   9    4   35 1
  10    5    6 ar
  11    5   33 1
  12    6    7 ar
  13    6   31 1
  14    7   38 1
  15    9   10 1
  16    9   39 1
  17   10   11 ar
  18   10   15 ar
  19   11   12 ar
  20   11   22 1
  21   12   13 ar
  22   12   40 1
  23   13   14 ar
  24   13   41 1
  25   14   15 ar
  26   14   42 1
  27   15   43 1
  28   16   17 1
  29   16   20 1
  30   17   18 1
  31   17   21 2
  32   18   19 1
  33   18   23 1
  34   19   20 2
  35   19   24 1
  36   20   44 1
  37   21   22 1
  38   22   23 2
  39   23   45 1
  40   24   25 1
  41   24   46 1
  42   24   47 1
  43   25   26 1
  44   25   30 1
  45   26   27 1
  46   26   48 1
  47   26   49 1
  48   27   28 1
  49   27   50 1
  50   27   51 1
  51   28   29 1
  52   28   52 1
  53   29   30 1
  54   29   53 1
  55   29   54 1
  56   30   55 1
  57   30   56 1
  58   31   32 1
  59   32   57 1
  60   32   58 1
  61   32   59 1
  62   33   34 1
  63   34   60 1
  64   34   61 1
  65   34   62 1
  66   35   36 1
  67   36   63 1
  68   36   64 1
  69   36   65 1

#	End of record

