#	Name: ASD01880754
#	Creating user name:	WinNT
#	Creation time:	15. 06. 2019 19:41

#	Modifying user name:	WinNT
#	Modification time:	15. 06. 2019 19:41

#	Program:	/corina/corina34_cracker 3.40 0067  02.08.2006

@<TRIPOS>MOLECULE
ASD01880754
  41   43    0    0    0
SMALL
NO_CHARGES


@<TRIPOS>ATOM
   1 N1            -0.0158     1.3136     0.0093 N.ar    
   2 C2             0.0021    -0.0041     0.0020 C.ar    
   3 N3             1.1320    -0.6826    -0.0120 N.ar    
   4 C4             2.2987    -0.0578    -0.0198 C.ar    
   5 C5             2.3217     1.3274    -0.0130 C.ar    
   6 C6             1.1124     2.0071     0.0022 C.ar    
   7 C7             3.6286     2.0776    -0.0209 C.3     
   8 O8             4.7124     1.1463    -0.0354 O.3     
   9 C9             5.9677     1.6619    -0.0440 C.ar    
  10 C10            7.0686     0.8109    -0.0582 C.ar    
  11 C11            8.3378     1.3337    -0.0674 C.ar    
  12 C12            8.5328     2.7189    -0.0627 C.ar    
  13 C13            7.4237     3.5692    -0.0488 C.ar    
  14 C14            6.1525     3.0394    -0.0446 C.ar    
  15 C15            9.7114     0.7105    -0.0830 C.3     
  16 N16           10.6666     1.8243    -0.0866 N.am    
  17 C17            9.9824     2.9811    -0.0748 C.2     
  18 O18           10.4880     4.0869    -0.0746 O.2     
  19 C19           -1.3044    -0.7552     0.0105 C.3     
  20 C20            7.6184     5.0635    -0.0430 C.3     
  21 Br21           1.0755     3.8977     0.0121 Br      
  22 C22           12.6211     1.6585    -1.5473 C.3     
  23 C23           12.1260     1.6965    -0.1002 C.3     
  24 H24            3.2206    -0.6203    -0.0309 H       
  25 H25            3.6800     2.7086    -0.9082 H       
  26 H26            3.6960     2.6997     0.8716 H       
  27 H27            6.9246    -0.2594    -0.0616 H       
  28 H28            5.2958     3.6969    -0.0342 H       
  29 H29            9.8546     0.0969     0.8064 H       
  30 H30            9.8381     0.1054    -0.9807 H       
  31 H31           -1.6291    -0.9308    -1.0151 H       
  32 H32           -1.1709    -1.7106     0.5179 H       
  33 H33           -2.0580    -0.1675     0.5347 H       
  34 H34            7.6565     5.4290    -1.0692 H       
  35 H35            6.7873     5.5362     0.4804 H       
  36 H36            8.5523     5.3062     0.4641 H       
  37 H37           13.7069     1.5634    -1.5575 H       
  38 H38           12.1769     0.8059    -2.0611 H       
  39 H39           12.3323     2.5791    -2.0545 H       
  40 H40           12.5702     2.5491     0.4135 H       
  41 H41           12.4148     0.7759     0.4070 H       
@<TRIPOS>BOND
   1    1    2 ar
   2    1    6 ar
   3    2    3 ar
   4    2   19 1
   5    3    4 ar
   6    4    5 ar
   7    4   24 1
   8    5    6 ar
   9    5    7 1
  10    6   21 1
  11    7    8 1
  12    7   25 1
  13    7   26 1
  14    8    9 1
  15    9   10 ar
  16    9   14 ar
  17   10   11 ar
  18   10   27 1
  19   11   12 ar
  20   11   15 1
  21   12   13 ar
  22   12   17 1
  23   13   14 ar
  24   13   20 1
  25   14   28 1
  26   15   16 1
  27   15   29 1
  28   15   30 1
  29   16   17 am
  30   16   23 1
  31   17   18 2
  32   19   31 1
  33   19   32 1
  34   19   33 1
  35   20   34 1
  36   20   35 1
  37   20   36 1
  38   22   23 1
  39   22   37 1
  40   22   38 1
  41   22   39 1
  42   23   40 1
  43   23   41 1

#	End of record

