#	Name: ASD01001092
#	Creating user name:	WinNT
#	Creation time:	15. 06. 2019 18:55

#	Modifying user name:	WinNT
#	Modification time:	15. 06. 2019 18:55

#	Program:	/corina/corina34_cracker 3.40 0067  02.08.2006

@<TRIPOS>MOLECULE
ASD01001092
  65   68    0    0    0
SMALL
NO_CHARGES


@<TRIPOS>ATOM
   1 C1             0.3308     0.8742    -1.3038 C.2     
   2 N2             0.0034     0.7755     0.0364 N.pl3   
   3 N3            -1.1442     0.0597     0.4002 N.2     
   4 C4            -1.8934    -0.5036    -0.4869 C.2     
   5 N5            -1.6236    -0.4427    -1.8313 N.am    
   6 C6            -0.5420     0.2294    -2.2840 C.2     
   7 C7             1.4871     1.6179    -1.4005 C.2     
   8 C8             1.8532     1.9670    -0.0969 C.2     
   9 C9             0.9323     1.4404     0.7506 C.2     
  10 O10           -0.2955     0.2882    -3.4752 O.2     
  11 C11           -2.5179    -1.1065    -2.7830 C.3     
  12 C12           -3.6654    -0.1888    -3.1180 C.ar    
  13 C13           -3.5198     0.7681    -4.1050 C.ar    
  14 C14           -4.5723     1.6099    -4.4123 C.ar    
  15 C15           -5.7706     1.4945    -3.7329 C.ar    
  16 C16           -5.9166     0.5371    -2.7465 C.ar    
  17 C17           -4.8655    -0.3076    -2.4423 C.ar    
  18 C18           -3.1138    -1.2592    -0.0280 C.3     
  19 N19           -2.7023    -2.3910     0.8062 N.am    
  20 C20           -4.0148    -0.3275     0.7849 C.3     
  21 C21           -5.3234    -1.0466     1.1188 C.3     
  22 C22           -2.0669    -2.1513     2.1043 C.3     
  23 C23           -2.9084    -3.6527     0.3795 C.2     
  24 C24           -3.4563    -3.8958    -0.9720 C.ar    
  25 O25           -2.6437    -4.5908     1.1058 O.2     
  26 C26           -2.8491    -4.8255    -1.8177 C.ar    
  27 C27           -3.3654    -5.0475    -3.0776 C.ar    
  28 C28           -4.4825    -4.3511    -3.5034 C.ar    
  29 C29           -5.0889    -3.4278    -2.6702 C.ar    
  30 C30           -4.5864    -3.2008    -1.4056 C.ar    
  31 C31           -5.0410    -4.5988    -4.8810 C.3     
  32 C32           -3.1317    -2.1613     3.2030 C.3     
  33 C33           -2.4681    -1.9110     4.5586 C.3     
  34 N34           -3.4904    -1.9206     5.6135 N.3     
  35 Cl35           2.3274     2.0399    -2.8597 Cl      
  36 H36            2.7158     2.5521     0.1859 H       
  37 H37            0.9424     1.5393     1.8260 H       
  38 H38           -1.9671    -1.3464    -3.6925 H       
  39 H39           -2.9042    -2.0241    -2.3394 H       
  40 H40           -2.5835     0.8582    -4.6358 H       
  41 H41           -4.4583     2.3579    -5.1829 H       
  42 H42           -6.5927     2.1527    -3.9725 H       
  43 H43           -6.8527     0.4472    -2.2155 H       
  44 H44           -4.9795    -1.0557    -1.6717 H       
  45 H45           -3.6608    -1.6275    -0.8959 H       
  46 H46           -3.5085    -0.0470     1.7085 H       
  47 H47           -4.2309     0.5683     0.2026 H       
  48 H48           -5.9458    -0.4000     1.7372 H       
  49 H49           -5.8522    -1.2857     0.1961 H       
  50 H50           -5.1043    -1.9666     1.6608 H       
  51 H51           -1.3349    -2.9347     2.3007 H       
  52 H52           -1.5676    -1.1825     2.0910 H       
  53 H53           -1.9768    -5.3695    -1.4866 H       
  54 H54           -2.8963    -5.7663    -3.7331 H       
  55 H55           -5.9604    -2.8873    -3.0087 H       
  56 H56           -5.0608    -2.4802    -0.7560 H       
  57 H57           -5.7808    -5.3980    -4.8349 H       
  58 H58           -5.5123    -3.6883    -5.2512 H       
  59 H59           -4.2338    -4.8894    -5.5535 H       
  60 H60           -3.8637    -1.3779     3.0066 H       
  61 H61           -3.6310    -3.1301     3.2162 H       
  62 H62           -1.7360    -2.6944     4.7550 H       
  63 H63           -1.9687    -0.9422     4.5454 H       
  64 H64           -3.0769    -1.7573     6.5193 H       
  65 H65           -4.2157    -1.2463     5.4202 H       
@<TRIPOS>BOND
   1    1    2 1
   2    1    7 2
   3    1    6 1
   4    2    3 1
   5    2    9 1
   6    3    4 2
   7    4    5 1
   8    4   18 1
   9    5    6 am
  10    5   11 1
  11    6   10 2
  12    7    8 1
  13    7   35 1
  14    8    9 2
  15    8   36 1
  16    9   37 1
  17   11   12 1
  18   11   38 1
  19   11   39 1
  20   12   13 ar
  21   12   17 ar
  22   13   14 ar
  23   13   40 1
  24   14   15 ar
  25   14   41 1
  26   15   16 ar
  27   15   42 1
  28   16   17 ar
  29   16   43 1
  30   17   44 1
  31   18   19 1
  32   18   20 1
  33   18   45 1
  34   19   22 1
  35   19   23 am
  36   20   21 1
  37   20   46 1
  38   20   47 1
  39   21   48 1
  40   21   49 1
  41   21   50 1
  42   22   32 1
  43   22   51 1
  44   22   52 1
  45   23   24 1
  46   23   25 2
  47   24   26 ar
  48   24   30 ar
  49   26   27 ar
  50   26   53 1
  51   27   28 ar
  52   27   54 1
  53   28   29 ar
  54   28   31 1
  55   29   30 ar
  56   29   55 1
  57   30   56 1
  58   31   57 1
  59   31   58 1
  60   31   59 1
  61   32   33 1
  62   32   60 1
  63   32   61 1
  64   33   34 1
  65   33   62 1
  66   33   63 1
  67   34   64 1
  68   34   65 1

#	End of record

