#	Name: ASD03331484
#	Creating user name:	WinNT
#	Creation time:	15. 06. 2019 20:39

#	Modifying user name:	WinNT
#	Modification time:	15. 06. 2019 20:39

#	Program:	/corina/corina34_cracker 3.40 0067  02.08.2006

@<TRIPOS>MOLECULE
ASD03331484
  60   62    0    0    0
SMALL
NO_CHARGES


@<TRIPOS>ATOM
   1 C1            -0.7696     0.8854    -0.3878 C.ar    
   2 C2            -0.5549    -0.5772    -0.3358 C.2     
   3 N3            -1.4773    -1.5018     0.0387 N.pl3   
   4 C4            -0.8862    -2.7288    -0.0471 C.2     
   5 C5             0.3851    -2.5317    -0.4756 C.2     
   6 N6             0.5586    -1.2012    -0.6495 N.2     
   7 C7             1.3941    -3.5787    -0.7147 C.2     
   8 N8             2.6268    -3.2415    -1.1425 N.am    
   9 C9            -1.8440     1.4595     0.2922 C.ar    
  10 O10            1.1144    -4.7472    -0.5261 O.2     
  11 C11            3.6299    -4.2824    -1.3803 C.3     
  12 C12            4.6558    -3.7792    -2.3978 C.3     
  13 C13            4.3270    -4.6133    -0.0858 C.2     
  14 C14            3.9654    -3.5389    -3.7419 C.3     
  15 C15           -2.8653    -1.3021     0.4646 C.3     
  16 C16           -3.5920    -2.6502     0.3748 C.3     
  17 N17           -2.8044    -3.6874     1.0556 N.3     
  18 C18           -1.5869    -4.0186     0.2934 C.3     
  19 O19            4.0165    -4.0364     0.9349 O.2     
  20 C20           -2.0398     2.8259     0.2402 C.ar    
  21 C21           -1.1699     3.6258    -0.4873 C.ar    
  22 C22           -0.1023     3.0586    -1.1640 C.ar    
  23 C23            0.1052     1.6959    -1.1124 C.ar    
  24 F24           -1.3649     4.9617    -0.5361 F       
  25 F25           -3.0795     3.3841     0.8979 F       
  26 C26           -3.6148    -4.8878     1.3009 C.3     
  27 C27           -4.9640    -2.5337     1.0418 C.3     
  28 N28            5.2955    -5.5502    -0.0623 N.am    
  29 C29            5.9732    -5.8719     1.1961 C.3     
  30 C30            4.9557    -2.8986    -4.7166 C.3     
  31 C31            3.4796    -4.8733    -4.3114 C.3     
  32 H32            2.8499    -2.3095    -1.2930 H       
  33 H33           -2.5214     0.8369     0.8578 H       
  34 H34            3.1413    -5.1760    -1.7685 H       
  35 H35            5.0930    -2.8462    -2.0420 H       
  36 H36            5.4413    -4.5248    -2.5209 H       
  37 H37            3.1141    -2.8733    -3.5992 H       
  38 H38           -2.8862    -0.9407     1.4927 H       
  39 H39           -3.3505    -0.5783    -0.1903 H       
  40 H40           -3.7216    -2.9229    -0.6726 H       
  41 H41           -1.8571    -4.5440    -0.6226 H       
  42 H42           -0.9320    -4.6452     0.8989 H       
  43 H43            0.5715     3.6852    -1.7293 H       
  44 H44            0.9380     1.2556    -1.6405 H       
  45 H45           -3.9705    -5.2864     0.3508 H       
  46 H46           -3.0077    -5.6392     1.8057 H       
  47 H47           -4.4677    -4.6285     1.9282 H       
  48 H48           -5.5515    -1.7691     0.5335 H       
  49 H49           -5.4813    -3.4911     0.9786 H       
  50 H50           -4.8368    -2.2580     2.0887 H       
  51 H51            5.5439    -6.0116    -0.8786 H       
  52 H52            6.7195    -6.6464     1.0192 H       
  53 H53            6.4618    -4.9783     1.5843 H       
  54 H54            5.2423    -6.2304     1.9210 H       
  55 H55            4.4414    -2.6469    -5.6441 H       
  56 H56            5.3684    -1.9927    -4.2726 H       
  57 H57            5.7629    -3.6001    -4.9276 H       
  58 H58            2.7741    -5.3294    -3.6170 H       
  59 H59            2.9878    -4.7021    -5.2690 H       
  60 H60            4.3309    -5.5389    -4.4540 H       
@<TRIPOS>BOND
   1    1    2 1
   2    1    9 ar
   3    1   23 ar
   4    2    3 1
   5    2    6 2
   6    3    4 1
   7    3   15 1
   8    4    5 2
   9    4   18 1
  10    5    6 1
  11    5    7 1
  12    7    8 am
  13    7   10 2
  14    8   11 1
  15    8   32 1
  16    9   20 ar
  17    9   33 1
  18   11   12 1
  19   11   13 1
  20   11   34 1
  21   12   14 1
  22   12   35 1
  23   12   36 1
  24   13   19 2
  25   13   28 am
  26   14   30 1
  27   14   31 1
  28   14   37 1
  29   15   16 1
  30   15   38 1
  31   15   39 1
  32   16   17 1
  33   16   27 1
  34   16   40 1
  35   17   18 1
  36   17   26 1
  37   18   41 1
  38   18   42 1
  39   20   21 ar
  40   20   25 1
  41   21   22 ar
  42   21   24 1
  43   22   23 ar
  44   22   43 1
  45   23   44 1
  46   26   45 1
  47   26   46 1
  48   26   47 1
  49   27   48 1
  50   27   49 1
  51   27   50 1
  52   28   29 1
  53   28   51 1
  54   29   52 1
  55   29   53 1
  56   29   54 1
  57   30   55 1
  58   30   56 1
  59   30   57 1
  60   31   58 1
  61   31   59 1
  62   31   60 1

#	End of record

