#	Name: ASD08150605
#	Creating user name:	WinNT
#	Creation time:	15. 06. 2019 21:16

#	Modifying user name:	WinNT
#	Modification time:	15. 06. 2019 21:16

#	Program:	/corina/corina34_cracker 3.40 0067  02.08.2006

@<TRIPOS>MOLECULE
ASD08150605
  49   53    0    0    0
SMALL
NO_CHARGES


@<TRIPOS>ATOM
   1 N1             0.8927     2.9326    -1.4894 N.am    
   2 C2             1.3161     2.3026    -2.6023 C.2     
   3 C3             2.5258     1.5787    -2.6084 C.2     
   4 C4             3.2845     1.5068    -1.4853 C.2     
   5 C5             2.8422     2.1684    -0.3124 C.ar    
   6 C6             3.5911     2.1255     0.8791 C.ar    
   7 N7             3.1806     2.7364     1.9597 N.ar    
   8 C8             2.0347     3.4332     1.9986 C.ar    
   9 C9             1.2174     3.5305     0.8456 C.ar    
  10 C10            1.6332     2.8804    -0.3399 C.ar    
  11 C11            0.0246     4.2584     0.8968 C.ar    
  12 C12           -0.3459     4.8785     2.0790 C.ar    
  13 C13            0.4680     4.7778     3.2159 C.ar    
  14 C14            1.6312     4.0740     3.1816 C.ar    
  15 O15            0.6438     2.3589    -3.6179 O.2     
  16 C16           -1.6094     5.6530     2.1419 C.ar    
  17 C17           -0.3092     3.6497    -1.5105 C.ar    
  18 C18           -0.3032     5.0100    -1.7919 C.ar    
  19 C19           -1.4906     5.7145    -1.8125 C.ar    
  20 C20           -2.6850     5.0673    -1.5528 C.ar    
  21 C21           -2.6944     3.7134    -1.2724 C.ar    
  22 C22           -1.5106     3.0017    -1.2559 C.ar    
  23 C23           -1.6839     6.8293     2.8954 C.ar    
  24 C24           -2.8823     7.5167     2.9232 C.ar    
  25 C25           -3.9657     7.0214     2.2076 C.ar    
  26 N26           -3.8627     5.9052     1.5046 N.ar    
  27 C27           -2.7368     5.2228     1.4470 C.ar    
  28 C28           -3.9981     3.0123    -0.9895 C.3     
  29 F29           -5.0490     3.9325    -1.0681 F       
  30 F30           -4.1956     1.9972    -1.9317 F       
  31 F31           -3.9599     2.4565     0.2937 F       
  32 O32           -5.1452     7.6913     2.2304 O.3     
  33 C33           -6.2227     7.1335     1.4755 C.3     
  34 H34            2.8497     1.0794    -3.5096 H       
  35 H35            4.2117     0.9531    -1.4852 H       
  36 H36            4.5216     1.5777     0.9010 H       
  37 H37           -0.6030     4.3368     0.0214 H       
  38 H38            0.1677     5.2663     4.1311 H       
  39 H39            2.2460     4.0065     4.0670 H       
  40 H40            0.6292     5.5161    -1.9941 H       
  41 H41           -1.4866     6.7721    -2.0312 H       
  42 H42           -3.6123     5.6207    -1.5688 H       
  43 H43           -1.5191     1.9434    -1.0408 H       
  44 H44           -0.8258     7.1911     3.4424 H       
  45 H45           -2.9759     8.4283     3.4948 H       
  46 H46           -2.6908     4.3157     0.8626 H       
  47 H47           -5.9388     7.0763     0.4247 H       
  48 H48           -6.4467     6.1333     1.8464 H       
  49 H49           -7.1047     7.7656     1.5796 H       
@<TRIPOS>BOND
   1    1    2 am
   2    1   10 1
   3    1   17 1
   4    2    3 1
   5    2   15 2
   6    3    4 2
   7    3   34 1
   8    4    5 1
   9    4   35 1
  10    5    6 ar
  11    5   10 ar
  12    6    7 ar
  13    6   36 1
  14    7    8 ar
  15    8    9 ar
  16    8   14 ar
  17    9   10 ar
  18    9   11 ar
  19   11   12 ar
  20   11   37 1
  21   12   13 ar
  22   12   16 1
  23   13   14 ar
  24   13   38 1
  25   14   39 1
  26   16   23 ar
  27   16   27 ar
  28   17   18 ar
  29   17   22 ar
  30   18   19 ar
  31   18   40 1
  32   19   20 ar
  33   19   41 1
  34   20   21 ar
  35   20   42 1
  36   21   22 ar
  37   21   28 1
  38   22   43 1
  39   23   24 ar
  40   23   44 1
  41   24   25 ar
  42   24   45 1
  43   25   26 ar
  44   25   32 1
  45   26   27 ar
  46   27   46 1
  47   28   29 1
  48   28   30 1
  49   28   31 1
  50   32   33 1
  51   33   47 1
  52   33   48 1
  53   33   49 1

#	End of record

