#	Name: ASD03092592
#	Creating user name:	WinNT
#	Creation time:	15. 06. 2019 20:32

#	Modifying user name:	WinNT
#	Modification time:	15. 06. 2019 20:32

#	Program:	/corina/corina34_cracker 3.40 0067  02.08.2006

@<TRIPOS>MOLECULE
ASD03092592
  44   46    0    0    0
SMALL
NO_CHARGES


@<TRIPOS>ATOM
   1 O1            -0.0143     1.2049     0.0087 O.3     
   2 N2             0.0021    -0.0041     0.0020 N.2     
   3 C3             1.2276    -0.4662    -0.0122 C.2     
   4 C4             2.0795     0.6732    -0.0142 C.2     
   5 C5             1.2227     1.7204    -0.0004 C.2     
   6 C6             1.6433    -1.8900    -0.0238 C.2     
   7 O7             2.8235    -2.1782    -0.0361 O.2     
   8 N8             0.7118    -2.8641    -0.0206 N.am    
   9 C9             1.1223    -4.2703    -0.0321 C.3     
  10 N10           -3.4446    -7.5578    -0.2817 N.pl3   
  11 C11           -3.5939    -7.6487    -1.6388 C.2     
  12 C12           -2.6296    -6.9456    -2.2534 C.2     
  13 C13           -1.7945    -6.3563    -1.2040 C.ar    
  14 C14           -0.6615    -5.5401    -1.2092 C.ar    
  15 C15           -0.1007    -5.1507    -0.0258 C.ar    
  16 C16           -0.6483    -5.5600     1.1826 C.ar    
  17 C17           -1.7653    -6.3656     1.2107 C.ar    
  18 C18           -2.3529    -6.7741     0.0176 C.ar    
  19 C19           -4.6798    -8.4238    -2.3397 C.3     
  20 C20            1.5883     3.1824     0.0035 C.3     
  21 C21            2.3994     3.5086    -1.2521 C.3     
  22 C22            0.3127     4.0271     0.0204 C.3     
  23 C23            2.4240     3.4958     1.2463 C.3     
  24 H24            3.1592     0.6969    -0.0238 H       
  25 H25           -0.2305    -2.6340    -0.0107 H       
  26 H26            1.7092    -4.4702    -0.9286 H       
  27 H27            1.7255    -4.4799     0.8513 H       
  28 H28           -4.0240    -7.9793     0.3721 H       
  29 H29           -2.4950    -6.8354    -3.3193 H       
  30 H30           -0.2295    -5.2185    -2.1453 H       
  31 H31           -0.1937    -5.2440     2.1098 H       
  32 H32           -2.1836    -6.6790     2.1558 H       
  33 H33           -5.5428    -7.7773    -2.4987 H       
  34 H34           -4.3097    -8.7790    -3.3014 H       
  35 H35           -4.9722    -9.2757    -1.7258 H       
  36 H36            1.8041     3.2854    -2.1374 H       
  37 H37            2.6639     4.5660    -1.2492 H       
  38 H38            3.3082     2.9068    -1.2641 H       
  39 H39           -0.2652     3.7947     0.9149 H       
  40 H40            0.5772     5.0845     0.0233 H       
  41 H41           -0.2826     3.8038    -0.8649 H       
  42 H42            3.3327     2.8940     1.2342 H       
  43 H43            2.6884     4.5532     1.2491 H       
  44 H44            1.8461     3.2634     2.1408 H       
@<TRIPOS>BOND
   1    1    2 1
   2    1    5 1
   3    2    3 2
   4    3    4 1
   5    3    6 1
   6    4    5 2
   7    4   24 1
   8    5   20 1
   9    6    7 2
  10    6    8 am
  11    8    9 1
  12    8   25 1
  13    9   15 1
  14    9   26 1
  15    9   27 1
  16   10   11 1
  17   10   18 1
  18   10   28 1
  19   11   12 2
  20   11   19 1
  21   12   13 1
  22   12   29 1
  23   13   14 ar
  24   13   18 ar
  25   14   15 ar
  26   14   30 1
  27   15   16 ar
  28   16   17 ar
  29   16   31 1
  30   17   18 ar
  31   17   32 1
  32   19   33 1
  33   19   34 1
  34   19   35 1
  35   20   21 1
  36   20   23 1
  37   20   22 1
  38   21   36 1
  39   21   37 1
  40   21   38 1
  41   22   39 1
  42   22   40 1
  43   22   41 1
  44   23   42 1
  45   23   43 1
  46   23   44 1

#	End of record

