#	Name: ASD01209196
#	Creating user name:	WinNT
#	Creation time:	15. 06. 2019 19:11

#	Modifying user name:	WinNT
#	Modification time:	15. 06. 2019 19:11

#	Program:	/corina/corina34_cracker 3.40 0067  02.08.2006

@<TRIPOS>MOLECULE
ASD01209196
  80   82    0    0    0
SMALL
NO_CHARGES


@<TRIPOS>ATOM
   1 O1             2.2432     3.4906     0.5692 O.3     
   2 O2             4.0773     5.0901     1.5642 O.3     
   3 C3             2.3988     7.2365    -8.9031 C.ar    
   4 C4             1.5168     6.9033    -9.9206 C.ar    
   5 C5             0.3121     6.2818    -9.6242 C.ar    
   6 C6            -0.0142     5.9908    -8.3102 C.ar    
   7 C7             0.8701     6.3243    -7.2834 C.ar    
   8 C8             2.0827     6.9444    -7.5865 C.ar    
   9 O9            -0.5488     5.9583   -10.6248 O.3     
  10 C10            0.5256     6.0165    -5.8792 C.2     
  11 N11            1.3810     6.3395    -4.8891 N.am    
  12 O12           -0.5294     5.4721    -5.6176 O.2     
  13 C13            1.0573     6.0503    -3.5697 C.2     
  14 P14            3.1654     4.7770     0.2748 P.3     
  15 O15            4.0359     4.5037    -0.8905 O.2     
  16 C16            2.1048     6.2159    -0.0832 C.3     
  17 N17            1.8061     6.3174    -2.5457 N.2     
  18 S18           -0.3899     5.2968    -3.0591 S.3     
  19 C19            0.1423     5.3872    -1.3821 C.2     
  20 C20            1.3415     5.9721    -1.3595 C.2     
  21 C21            2.7772     2.1823     0.7814 C.3     
  22 C22            1.6325     1.1987     1.0326 C.3     
  23 C23            5.0900     4.1991     2.0361 C.3     
  24 C24            5.7617     4.7996     3.2727 C.3     
  25 O25            3.5772     7.8456    -9.1990 O.3     
  26 C26            4.4834     8.0657    -8.1162 C.3     
  27 C27            5.9104     8.1684    -8.6584 C.3     
  28 C28            4.1153     9.3664    -7.3995 C.3     
  29 C29           -0.0989     6.1764   -11.9635 C.3     
  30 C30           -0.8609     5.2651   -12.9617 C.3     
  31 C31           -0.7873     6.0611   -14.2818 C.3     
  32 N32           -0.5511     7.4689   -13.9300 N.am    
  33 C33           -0.5006     7.5872   -12.4614 C.3     
  34 O34           -0.4704     8.2453   -16.1288 O.3     
  35 C35           -0.3031     9.3851   -17.0126 C.3     
  36 C36            1.0706    10.0160   -16.7768 C.3     
  37 C37           -0.4088     8.9223   -18.4672 C.3     
  38 C38           -1.3948    10.4178   -16.7254 C.3     
  39 C39           -0.4040     8.4832   -14.8053 C.2     
  40 O40           -0.2116     9.6124   -14.3999 O.2     
  41 H41            1.7683     7.1285   -10.9465 H       
  42 H42           -0.9522     5.5073    -8.0803 H       
  43 H43            2.7699     7.2042    -6.7949 H       
  44 H44            2.2228     6.7739    -5.0979 H       
  45 H45            1.4029     6.3631     0.7375 H       
  46 H46            2.7248     7.1054    -0.1950 H       
  47 H47           -0.4076     5.0342    -0.5222 H       
  48 H48            3.3369     1.8708    -0.1005 H       
  49 H49            3.4404     2.1964     1.6464 H       
  50 H50            1.0728     1.5101     1.9145 H       
  51 H51            0.9693     1.1845     0.1677 H       
  52 H52            2.0399     0.2007     1.1945 H       
  53 H53            4.6389     3.2416     2.2965 H       
  54 H54            5.8349     4.0492     1.2546 H       
  55 H55            5.0167     4.9495     4.0541 H       
  56 H56            6.5342     4.1200     3.6326 H       
  57 H57            6.2128     5.7571     3.0122 H       
  58 H58            4.4203     7.2339    -7.4147 H       
  59 H59            5.9736     9.0003    -9.3599 H       
  60 H60            6.6017     8.3364    -7.8325 H       
  61 H61            6.1727     7.2418    -9.1690 H       
  62 H62            4.1784    10.1982    -8.1011 H       
  63 H63            3.0987     9.2932    -7.0133 H       
  64 H64            4.8065     9.5344    -6.5736 H       
  65 H65            0.9779     6.0260   -12.0410 H       
  66 H66           -0.3608     4.3020   -13.0637 H       
  67 H67           -1.8965     5.1319   -12.6489 H       
  68 H68            0.0344     5.6890   -14.8937 H       
  69 H69           -1.7281     5.9673   -14.8241 H       
  70 H70           -1.4793     7.8635   -12.0692 H       
  71 H71            0.2487     8.3215   -12.1655 H       
  72 H72            1.8484     9.2803   -16.9814 H       
  73 H73            1.1962    10.8717   -17.4403 H       
  74 H74            1.1459    10.3457   -15.7405 H       
  75 H75           -1.3875     8.4728   -18.6352 H       
  76 H76           -0.2832     9.7780   -19.1307 H       
  77 H77            0.3689     8.1866   -18.6718 H       
  78 H78           -1.3195    10.7474   -15.6891 H       
  79 H79           -1.2692    11.2734   -17.3889 H       
  80 H80           -2.3735     9.9683   -16.8934 H       
@<TRIPOS>BOND
   1    1   21 1
   2    1   14 1
   3    2   23 1
   4    2   14 1
   5    3    4 ar
   6    3   25 1
   7    3    8 ar
   8    4    5 ar
   9    4   41 1
  10    5    6 ar
  11    5    9 1
  12    6    7 ar
  13    6   42 1
  14    7    8 ar
  15    7   10 1
  16    8   43 1
  17    9   29 1
  18   10   11 am
  19   10   12 2
  20   11   13 1
  21   11   44 1
  22   13   17 2
  23   13   18 1
  24   14   15 2
  25   14   16 1
  26   16   20 1
  27   16   45 1
  28   16   46 1
  29   17   20 1
  30   18   19 1
  31   19   20 2
  32   19   47 1
  33   21   22 1
  34   21   48 1
  35   21   49 1
  36   22   50 1
  37   22   51 1
  38   22   52 1
  39   23   24 1
  40   23   53 1
  41   23   54 1
  42   24   55 1
  43   24   56 1
  44   24   57 1
  45   25   26 1
  46   26   27 1
  47   26   28 1
  48   26   58 1
  49   27   59 1
  50   27   60 1
  51   27   61 1
  52   28   62 1
  53   28   63 1
  54   28   64 1
  55   29   30 1
  56   29   33 1
  57   29   65 1
  58   30   31 1
  59   30   66 1
  60   30   67 1
  61   31   32 1
  62   31   68 1
  63   31   69 1
  64   32   33 1
  65   32   39 am
  66   33   70 1
  67   33   71 1
  68   34   35 1
  69   34   39 1
  70   35   36 1
  71   35   37 1
  72   35   38 1
  73   36   72 1
  74   36   73 1
  75   36   74 1
  76   37   75 1
  77   37   76 1
  78   37   77 1
  79   38   78 1
  80   38   79 1
  81   38   80 1
  82   39   40 2

#	End of record

