#	Name: ASD01882535
#	Creating user name:	WinNT
#	Creation time:	15. 06. 2019 19:44

#	Modifying user name:	WinNT
#	Modification time:	15. 06. 2019 19:44

#	Program:	/corina/corina34_cracker 3.40 0067  02.08.2006

@<TRIPOS>MOLECULE
ASD01882535
  56   61    0    0    0
SMALL
NO_CHARGES


@<TRIPOS>ATOM
   1 C1            -0.2473     2.6406     1.8506 C.3     
   2 C2            -0.1295     1.2219     1.2944 C.3     
   3 N3            -0.0827     0.2509     2.3936 N.3     
   4 C4             1.0199     0.5730     3.3135 C.3     
   5 C5             0.6033     1.7659     4.1760 C.3     
   6 C6             0.1754     2.9269     3.2866 C.3     
   7 C7             1.0764     3.3647     2.1386 C.3     
   8 C8            -0.5604     4.0343     3.9961 C.ar    
   9 C9            -0.2355     4.3548     5.3009 C.ar    
  10 C10           -0.9105     5.3706     5.9517 C.ar    
  11 C11           -1.9101     6.0661     5.2975 C.ar    
  12 C12           -2.2344     5.7461     3.9924 C.ar    
  13 C13           -1.5565     4.7333     3.3402 C.ar    
  14 C14            0.0434    -1.1197     1.8803 C.3     
  15 C15           -0.3909    -3.5838     4.7115 C.2     
  16 C16           -0.6840    -2.7100     3.6468 C.2     
  17 C17            0.3340    -2.0591     3.0223 C.2     
  18 C18            1.6580    -2.2663     3.4457 C.2     
  19 C19            1.9239    -3.1072     4.4673 C.2     
  20 N20            0.9130    -3.7663     5.1025 N.pl3   
  21 N21           -0.3827    -4.9642     6.3352 N.2     
  22 N22           -1.1372    -4.3378     5.5021 N.2     
  23 C23            0.8715    -4.6515     6.1351 C.2     
  24 C24           -2.1091    -2.4985     3.2046 C.3     
  25 F25           -2.3510    -3.2376     2.0416 F       
  26 F26           -2.9788    -2.9217     4.2154 F       
  27 F27           -2.3204    -1.1400     2.9461 F       
  28 C28            2.0545    -5.1742     6.9086 C.3     
  29 C29            2.3285    -4.2577     8.1026 C.3     
  30 C30            3.4225    -4.6836     9.0838 C.3     
  31 C31            3.6645    -3.5125     8.1293 C.3     
  32 H32           -1.0664     3.2358     1.4471 H       
  33 H33           -0.9907     1.0094     0.6609 H       
  34 H34            0.7815     1.1407     0.7015 H       
  35 H35            1.2264    -0.2859     3.9522 H       
  36 H36            1.9113     0.8290     2.7409 H       
  37 H37           -0.2288     1.4756     4.8174 H       
  38 H38            1.4448     2.0758     4.7956 H       
  39 H39            1.9999     2.8072     1.9823 H       
  40 H40            1.1263     4.4305     1.9157 H       
  41 H41            0.5455     3.8114     5.8120 H       
  42 H42           -0.6571     5.6206     6.9713 H       
  43 H43           -2.4379     6.8592     5.8062 H       
  44 H44           -3.0156     6.2893     3.4814 H       
  45 H45           -1.8073     4.4857     2.3193 H       
  46 H46           -0.8880    -1.4135     1.3962 H       
  47 H47            0.8580    -1.1635     1.1575 H       
  48 H48            2.4672    -1.7501     2.9506 H       
  49 H49            2.9451    -3.2592     4.7843 H       
  50 H50            1.8390    -6.1813     7.2655 H       
  51 H51            2.9306    -5.1982     6.2604 H       
  52 H52            1.4577    -3.7451     8.5114 H       
  53 H53            3.2716    -4.4508    10.1379 H       
  54 H54            3.9471    -5.6167     8.8785 H       
  55 H55            4.3482    -3.6752     7.2962 H       
  56 H56            3.6727    -2.5093     8.5556 H       
@<TRIPOS>BOND
   1    1    2 1
   2    1    7 1
   3    1    6 1
   4    1   32 1
   5    2    3 1
   6    2   33 1
   7    2   34 1
   8    3    4 1
   9    3   14 1
  10    4    5 1
  11    4   35 1
  12    4   36 1
  13    5    6 1
  14    5   37 1
  15    5   38 1
  16    6    7 1
  17    6    8 1
  18    7   39 1
  19    7   40 1
  20    8    9 ar
  21    8   13 ar
  22    9   10 ar
  23    9   41 1
  24   10   11 ar
  25   10   42 1
  26   11   12 ar
  27   11   43 1
  28   12   13 ar
  29   12   44 1
  30   13   45 1
  31   14   17 1
  32   14   46 1
  33   14   47 1
  34   15   16 1
  35   15   20 1
  36   15   22 2
  37   16   17 2
  38   16   24 1
  39   17   18 1
  40   18   19 2
  41   18   48 1
  42   19   20 1
  43   19   49 1
  44   20   23 1
  45   21   22 1
  46   21   23 2
  47   23   28 1
  48   24   25 1
  49   24   26 1
  50   24   27 1
  51   28   29 1
  52   28   50 1
  53   28   51 1
  54   29   30 1
  55   29   31 1
  56   29   52 1
  57   30   31 1
  58   30   53 1
  59   30   54 1
  60   31   55 1
  61   31   56 1

#	End of record

