#	Name: ASD01230279
#	Creating user name:	WinNT
#	Creation time:	15. 06. 2019 19:12

#	Modifying user name:	WinNT
#	Modification time:	15. 06. 2019 19:12

#	Program:	/corina/corina34_cracker 3.40 0067  02.08.2006

@<TRIPOS>MOLECULE
ASD01230279
  43   46    0    0    0
SMALL
NO_CHARGES


@<TRIPOS>ATOM
   1 S1            -0.0204     1.6504     0.0111 S.o2    
   2 N2             0.0021    -0.0041     0.0020 N.am    
   3 C3             1.0227    -0.6872    -0.4556 C.2     
   4 N4             2.1688    -0.1518    -0.9712 N.pl3   
   5 C5             2.3935     1.2854    -1.1473 C.3     
   6 C6             1.7501     2.0749    -0.0035 C.3     
   7 C7             0.8948    -2.1592    -0.3950 C.2     
   8 C8             1.9460    -2.9423    -0.8230 C.2     
   9 C9             3.1043    -2.3191    -1.3057 C.2     
  10 C10            3.1906    -0.9787    -1.3650 C.2     
  11 C11           -2.6667    -3.9523     1.0814 C.ar    
  12 C12           -1.4655    -4.1161     1.7720 C.ar    
  13 C13           -0.3120    -3.5360     1.2945 C.ar    
  14 C14           -0.3443    -2.7834     0.1185 C.ar    
  15 C15           -1.5467    -2.6199    -0.5720 C.ar    
  16 C16           -2.6997    -3.2008    -0.0932 C.ar    
  17 C17           -3.9076    -4.5822     1.5933 C.ar    
  18 C18           -5.0702    -3.8258     1.7323 C.ar    
  19 C19           -6.2223    -4.4175     2.2088 C.ar    
  20 C20           -6.2247    -5.7584     2.5487 C.ar    
  21 C21           -5.0739    -6.5139     2.4132 C.ar    
  22 C22           -3.9176    -5.9344     1.9319 C.ar    
  23 C23           -1.4308    -4.9283     3.0409 C.3     
  24 O24           -0.6346     2.0064    -1.2198 O.2     
  25 O25           -0.6110     1.9931     1.2573 O.2     
  26 H26            3.4654     1.4826    -1.1617 H       
  27 H27            1.9572     1.6041    -2.0939 H       
  28 H28            1.8743     3.1443    -0.1744 H       
  29 H29            2.2074     1.7939     0.9452 H       
  30 H30            1.8776    -4.0195    -0.7864 H       
  31 H31            3.9376    -2.9226    -1.6341 H       
  32 H32            4.1017    -0.5345    -1.7378 H       
  33 H33            0.6176    -3.6622     1.8296 H       
  34 H34           -1.5724    -2.0384    -1.4817 H       
  35 H35           -3.6299    -3.0745    -0.6272 H       
  36 H36           -5.0693    -2.7786     1.4679 H       
  37 H37           -7.1237    -3.8324     2.3169 H       
  38 H38           -7.1286    -6.2172     2.9215 H       
  39 H39           -5.0815    -7.5603     2.6804 H       
  40 H40           -3.0209    -6.5263     1.8221 H       
  41 H41           -1.2232    -5.9707     2.7995 H       
  42 H42           -0.6493    -4.5445     3.6967 H       
  43 H43           -2.3950    -4.8569     3.5444 H       
@<TRIPOS>BOND
   1    1    2 am
   2    1    6 1
   3    1   24 2
   4    1   25 2
   5    2    3 2
   6    3    4 1
   7    3    7 1
   8    4    5 1
   9    4   10 1
  10    5    6 1
  11    5   26 1
  12    5   27 1
  13    6   28 1
  14    6   29 1
  15    7    8 2
  16    7   14 1
  17    8    9 1
  18    8   30 1
  19    9   10 2
  20    9   31 1
  21   10   32 1
  22   11   12 ar
  23   11   16 ar
  24   11   17 1
  25   12   13 ar
  26   12   23 1
  27   13   14 ar
  28   13   33 1
  29   14   15 ar
  30   15   16 ar
  31   15   34 1
  32   16   35 1
  33   17   18 ar
  34   17   22 ar
  35   18   19 ar
  36   18   36 1
  37   19   20 ar
  38   19   37 1
  39   20   21 ar
  40   20   38 1
  41   21   22 ar
  42   21   39 1
  43   22   40 1
  44   23   41 1
  45   23   42 1
  46   23   43 1

#	End of record

