#	Name: ASD01810667
#	Creating user name:	WinNT
#	Creation time:	15. 06. 2019 19:25

#	Modifying user name:	WinNT
#	Modification time:	15. 06. 2019 19:25

#	Program:	/corina/corina34_cracker 3.40 0067  02.08.2006

@<TRIPOS>MOLECULE
ASD01810667
  39   42    0    0    0
SMALL
NO_CHARGES


@<TRIPOS>ATOM
   1 C1            -0.0167     1.3799     0.0096 C.ar    
   2 C2             0.0021    -0.0041     0.0020 C.ar    
   3 C3             1.2168    -0.6661    -0.0131 C.ar    
   4 N4             2.3565     0.0003    -0.0204 N.ar    
   5 C5             2.3890     1.3143    -0.0137 C.ar    
   6 C6             1.2070     2.0575     0.0016 C.ar    
   7 C7             1.5554     3.4896     0.0064 C.2     
   8 C8             3.5178     2.3166    -0.0191 C.3     
   9 N9             2.8910     3.6431    -0.0052 N.am    
  10 O10            0.7510     4.4008     0.0185 O.2     
  11 C11            3.6030     4.9235    -0.0050 C.3     
  12 C12            3.8609     5.3545     1.4158 C.ar    
  13 C13            3.0383     6.2933     2.0114 C.ar    
  14 C14            4.9177     4.8051     2.1229 C.ar    
  15 C15            5.1576     5.1981     3.4268 C.ar    
  16 C16            4.3346     6.1472     4.0273 C.ar    
  17 C17            3.2701     6.6921     3.3122 C.ar    
  18 C18            4.5871     6.5732     5.4270 C.2     
  19 C19            5.6174     6.1061     6.2661 C.2     
  20 N20            5.5110     6.7153     7.4173 N.2     
  21 N21            4.4178     7.5881     7.3592 N.pl3   
  22 C22            3.8670     7.4926     6.1323 C.2     
  23 C23            3.9553     8.4587     8.4430 C.3     
  24 F24            5.7146     3.8840     1.5383 F       
  25 H25           -0.9508     1.9219     0.0170 H       
  26 H26           -0.9227    -0.5618     0.0082 H       
  27 H27            1.2331    -1.7460    -0.0187 H       
  28 H28            4.1379     2.1868     0.8679 H       
  29 H29            4.1209     2.1964    -0.9191 H       
  30 H30            4.5524     4.8114    -0.5287 H       
  31 H31            2.9968     5.6764    -0.5087 H       
  32 H32            2.2130     6.7154     1.4574 H       
  33 H33            5.9813     4.7695     3.9783 H       
  34 H34            2.6270     7.4258     3.7754 H       
  35 H35            6.3648     5.3718     6.0040 H       
  36 H36            3.0096     8.0427     5.7736 H       
  37 H37            4.4565     9.4240     8.3726 H       
  38 H38            2.8780     8.6017     8.3595 H       
  39 H39            4.1873     7.9979     9.4032 H       
@<TRIPOS>BOND
   1    1    2 ar
   2    1    6 ar
   3    1   25 1
   4    2    3 ar
   5    2   26 1
   6    3    4 ar
   7    3   27 1
   8    4    5 ar
   9    5    6 ar
  10    5    8 1
  11    6    7 1
  12    7    9 am
  13    7   10 2
  14    8    9 1
  15    8   28 1
  16    8   29 1
  17    9   11 1
  18   11   12 1
  19   11   30 1
  20   11   31 1
  21   12   14 ar
  22   12   13 ar
  23   13   17 ar
  24   13   32 1
  25   14   15 ar
  26   14   24 1
  27   15   16 ar
  28   15   33 1
  29   16   17 ar
  30   16   18 1
  31   17   34 1
  32   18   19 1
  33   18   22 2
  34   19   20 2
  35   19   35 1
  36   20   21 1
  37   21   22 1
  38   21   23 1
  39   22   36 1
  40   23   37 1
  41   23   38 1
  42   23   39 1

#	End of record

