#	Name: ASD02030141
#	Creating user name:	WinNT
#	Creation time:	15. 06. 2019 20:14

#	Modifying user name:	WinNT
#	Modification time:	15. 06. 2019 20:14

#	Program:	/corina/corina34_cracker 3.40 0067  02.08.2006

@<TRIPOS>MOLECULE
ASD02030141
  53   56    0    0    0
SMALL
NO_CHARGES


@<TRIPOS>ATOM
   1 N1             0.2337     1.1410    -0.2173 N.am    
   2 C2            -0.0773    -0.2942    -0.2746 C.3     
   3 C3            -1.0583    -0.6286     0.8559 C.3     
   4 N4            -2.1648     0.3380     0.8187 N.am    
   5 C5            -1.8538     1.7732     0.8759 C.3     
   6 C6            -0.8730     2.1074    -0.2490 C.3     
   7 C7             1.5108     1.5632    -0.1317 C.2     
   8 C8             2.6047     0.5817     0.0279 C.2     
   9 N9             3.8708     0.8633     0.2485 N.2     
  10 N10            2.4800    -0.7573    -0.0209 N.2     
  11 C11            3.6713    -1.2660     0.1653 C.2     
  12 N12            4.5310    -0.2401     0.3324 N.pl3   
  13 O13            1.7631     2.7511    -0.1858 O.2     
  14 C14           -3.4419    -0.0842     0.7331 C.2     
  15 C15           -3.7420    -1.5376     0.6920 C.ar    
  16 O16           -4.3473     0.7244     0.6895 O.2     
  17 C17           -0.3268     3.5226    -0.0504 C.3     
  18 C18           -1.5881     2.0138    -1.5983 C.3     
  19 C19            5.9093    -0.3549     0.5586 C.ar    
  20 C20            6.6860     0.7855     0.7147 C.ar    
  21 C21            8.0441     0.6691     0.9374 C.ar    
  22 C22            8.6305    -0.5814     1.0047 C.ar    
  23 C23            7.8596    -1.7189     0.8496 C.ar    
  24 C24            6.5000    -1.6092     0.6328 C.ar    
  25 N25           -2.7926    -2.4320     0.9557 N.ar    
  26 C26           -3.0547    -3.7210     0.9207 C.ar    
  27 N27           -4.2551    -4.1807     0.6261 N.ar    
  28 C28           -5.2521    -3.3569     0.3520 C.ar    
  29 C29           -5.0256    -1.9882     0.3819 C.ar    
  30 C30           -1.9508    -4.7005     1.2258 C.3     
  31 F31           -2.1400    -5.2325     2.5058 F       
  32 F32           -1.9710    -5.7343     0.2835 F       
  33 F33           -0.7166    -4.0440     1.1714 F       
  34 H34           -0.5324    -0.5319    -1.2361 H       
  35 H35            0.8380    -0.8723    -0.1475 H       
  36 H36           -1.4483    -1.6367     0.7156 H       
  37 H37           -0.5466    -0.5619     1.8160 H       
  38 H38           -2.7691     2.3512     0.7488 H       
  39 H39           -1.3987     2.0108     1.8374 H       
  40 H40            3.9204    -2.3167     0.1848 H       
  41 H41            0.3322     3.5393     0.8177 H       
  42 H42            0.2319     3.8241    -0.9364 H       
  43 H43           -1.1552     4.2128     0.1090 H       
  44 H44           -2.4179     2.7204    -1.6196 H       
  45 H45           -0.8872     2.2524    -2.3983 H       
  46 H46           -1.9688     1.0021    -1.7385 H       
  47 H47            6.2286     1.7624     0.6616 H       
  48 H48            8.6487     1.5557     1.0589 H       
  49 H49            9.6928    -0.6698     1.1782 H       
  50 H50            8.3205    -2.6942     0.9026 H       
  51 H51            5.8984    -2.4980     0.5121 H       
  52 H52           -6.2314    -3.7441     0.1120 H       
  53 H53           -5.8201    -1.2902     0.1630 H       
@<TRIPOS>BOND
   1    1    2 1
   2    1    7 am
   3    1    6 1
   4    2    3 1
   5    2   34 1
   6    2   35 1
   7    3    4 1
   8    3   36 1
   9    3   37 1
  10    4    5 1
  11    4   14 am
  12    5    6 1
  13    5   38 1
  14    5   39 1
  15    6   17 1
  16    6   18 1
  17    7    8 1
  18    7   13 2
  19    8    9 2
  20    8   10 1
  21    9   12 1
  22   10   11 2
  23   11   12 1
  24   11   40 1
  25   12   19 1
  26   14   15 1
  27   14   16 2
  28   15   25 ar
  29   15   29 ar
  30   17   41 1
  31   17   42 1
  32   17   43 1
  33   18   44 1
  34   18   45 1
  35   18   46 1
  36   19   20 ar
  37   19   24 ar
  38   20   21 ar
  39   20   47 1
  40   21   22 ar
  41   21   48 1
  42   22   23 ar
  43   22   49 1
  44   23   24 ar
  45   23   50 1
  46   24   51 1
  47   25   26 ar
  48   26   27 ar
  49   26   30 1
  50   27   28 ar
  51   28   29 ar
  52   28   52 1
  53   29   53 1
  54   30   31 1
  55   30   33 1
  56   30   32 1

#	End of record

