#	Name: ASD03930158
#	Creating user name:	WinNT
#	Creation time:	15. 06. 2019 20:47

#	Modifying user name:	WinNT
#	Modification time:	15. 06. 2019 20:47

#	Program:	/corina/corina34_cracker 3.40 0067  02.08.2006

@<TRIPOS>MOLECULE
ASD03930158
  54   57    0    0    0
SMALL
NO_CHARGES


@<TRIPOS>ATOM
   1 C1            -0.0162     1.3436     0.0094 C.2     
   2 N2             0.0021    -0.0041     0.0020 N.am    
   3 O3             1.0277     1.9654     0.0028 O.2     
   4 O4            -1.1912     2.0008     0.0186 O.3     
   5 C5             1.2806    -0.7192    -0.0140 C.3     
   6 C6             1.1133    -2.1289     0.5918 C.3     
   7 C7             0.8194    -2.9919    -0.6536 C.3     
   8 C8             1.4695    -2.2577    -1.8067 C.ar    
   9 C9             1.8027    -2.6974    -3.0770 C.ar    
  10 C10            2.3985    -1.8356    -3.9768 C.ar    
  11 C11            2.6635    -0.5294    -3.6092 C.ar    
  12 C12            2.3319    -0.0891    -2.3429 C.ar    
  13 C13            1.7344    -0.9518    -1.4392 C.ar    
  14 C14            2.7599    -2.3186    -5.3578 C.3     
  15 N15            1.6315    -2.0936    -6.2646 N.pl3   
  16 N16            0.3207    -2.5513    -6.0785 N.2     
  17 C17           -0.3996    -2.1534    -7.0957 C.2     
  18 C18            0.4282    -1.4306    -7.9611 C.2     
  19 C19            1.6699    -1.4039    -7.4239 C.2     
  20 C20           -1.8674    -2.4270    -7.3000 C.3     
  21 F21           -2.3810    -3.0802    -6.1746 F       
  22 F22           -2.5455    -1.2177    -7.4873 F       
  23 F23           -2.0382    -3.2370    -8.4278 F       
  24 C24            0.0096    -0.7894    -9.2590 C.3     
  25 O25            1.1356    -0.1429    -9.8558 O.3     
  26 C26           -1.1349     3.4517     0.0262 C.3     
  27 C27           -2.5351     4.0087     0.0359 C.ar    
  28 C28           -3.1717     4.2577     1.2374 C.ar    
  29 C29           -4.4561     4.7686     1.2463 C.ar    
  30 C30           -5.1038     5.0309     0.0536 C.ar    
  31 C31           -4.4670     4.7828    -1.1480 C.ar    
  32 C32           -3.1809     4.2760    -1.1568 C.ar    
  33 H33           -0.8313    -0.5005     0.0073 H       
  34 H34            2.0344    -0.1575     0.5376 H       
  35 H35            2.0328    -2.4527     1.0794 H       
  36 H36            0.2747    -2.1546     1.2876 H       
  37 H37            1.2597    -3.9826    -0.5398 H       
  38 H38           -0.2558    -3.0712    -0.8138 H       
  39 H39            1.5964    -3.7177    -3.3648 H       
  40 H40            3.1297     0.1458    -4.3114 H       
  41 H41            2.5392     0.9314    -2.0565 H       
  42 H42            3.6304    -1.7705    -5.7182 H       
  43 H43            2.9902    -3.3833    -5.3216 H       
  44 H44            2.5370    -0.9198    -7.8484 H       
  45 H45           -0.3711    -1.5543    -9.9359 H       
  46 H46           -0.7713    -0.0540    -9.0657 H       
  47 H47            0.9392     0.2924   -10.6966 H       
  48 H48           -0.6031     3.7900     0.9155 H       
  49 H49           -0.6116     3.7997    -0.8644 H       
  50 H50           -2.6656     4.0527     2.1692 H       
  51 H51           -4.9537     4.9624     2.1850 H       
  52 H52           -6.1076     5.4294     0.0605 H       
  53 H53           -4.9732     4.9875    -2.0798 H       
  54 H54           -2.6820     4.0856    -2.0955 H       
@<TRIPOS>BOND
   1    1    2 am
   2    1    3 2
   3    1    4 1
   4    2    5 1
   5    2   33 1
   6    4   26 1
   7    5    6 1
   8    5   13 1
   9    5   34 1
  10    6    7 1
  11    6   35 1
  12    6   36 1
  13    7    8 1
  14    7   37 1
  15    7   38 1
  16    8    9 ar
  17    8   13 ar
  18    9   10 ar
  19    9   39 1
  20   10   11 ar
  21   10   14 1
  22   11   12 ar
  23   11   40 1
  24   12   13 ar
  25   12   41 1
  26   14   15 1
  27   14   42 1
  28   14   43 1
  29   15   16 1
  30   15   19 1
  31   16   17 2
  32   17   18 1
  33   17   20 1
  34   18   19 2
  35   18   24 1
  36   19   44 1
  37   20   21 1
  38   20   22 1
  39   20   23 1
  40   24   25 1
  41   24   45 1
  42   24   46 1
  43   25   47 1
  44   26   27 1
  45   26   48 1
  46   26   49 1
  47   27   28 ar
  48   27   32 ar
  49   28   29 ar
  50   28   50 1
  51   29   30 ar
  52   29   51 1
  53   30   31 ar
  54   30   52 1
  55   31   32 ar
  56   31   53 1
  57   32   54 1

#	End of record

