#	Name: ASD02508065
#	Creating user name:	WinNT
#	Creation time:	15. 06. 2019 20:23

#	Modifying user name:	WinNT
#	Modification time:	15. 06. 2019 20:23

#	Program:	/corina/corina34_cracker 3.40 0067  02.08.2006

@<TRIPOS>MOLECULE
ASD02508065
  27   29    0    0    0
SMALL
NO_CHARGES


@<TRIPOS>ATOM
   1 C1             0.7308     2.1326     0.0787 C.ar    
   2 C2             0.4553     0.7792     0.1953 C.ar    
   3 C3             2.0453     2.5686    -0.0858 C.ar    
   4 C4             3.0766     1.6442    -0.1321 C.ar    
   5 C5             2.7967     0.2907    -0.0147 C.ar    
   6 C6             1.4849    -0.1396     0.1486 C.ar    
   7 N7            -0.0710     3.2768     0.0815 N.am    
   8 C8             0.7425     4.3407    -0.0696 C.2     
   9 O9             2.0134     3.9212    -0.1713 O.3     
  10 N10            3.8370    -0.6436    -0.0612 N.am    
  11 S11            3.9030    -1.8654     1.0546 S.o2    
  12 C12            4.0712    -1.1153     2.6401 C.2     
  13 S13            5.5959    -0.6614     3.3904 S.3     
  14 O14            0.3806     5.5009    -0.1116 O.2     
  15 O15            2.6274    -2.4914     1.0402 O.2     
  16 O16            5.1153    -2.5658     0.8114 O.2     
  17 C17            3.0614    -0.7996     3.4524 C.2     
  18 C18            3.4370    -0.2164     4.6504 C.2     
  19 C19            4.7516    -0.0567     4.8099 C.2     
  20 H20           -0.5633     0.4437     0.3230 H       
  21 H21            4.0962     1.9769    -0.2596 H       
  22 H22            1.2709    -1.1942     0.2396 H       
  23 H23           -1.0362     3.3010     0.1747 H       
  24 H24            4.5195    -0.5757    -0.7471 H       
  25 H25            2.0291    -0.9847     3.1949 H       
  26 H26            2.7198     0.0880     5.3982 H       
  27 H27            5.2251     0.3788     5.6775 H       
@<TRIPOS>BOND
   1    1    2 ar
   2    1    3 ar
   3    1    7 1
   4    2    6 ar
   5    2   20 1
   6    3    4 ar
   7    3    9 1
   8    4    5 ar
   9    4   21 1
  10    5    6 ar
  11    5   10 1
  12    6   22 1
  13    7    8 am
  14    7   23 1
  15    8    9 1
  16    8   14 2
  17   10   11 am
  18   10   24 1
  19   11   12 1
  20   11   15 2
  21   11   16 2
  22   12   13 1
  23   12   17 2
  24   13   19 1
  25   17   18 1
  26   17   25 1
  27   18   19 2
  28   18   26 1
  29   19   27 1

#	End of record

