#	Name: ASD03090963
#	Creating user name:	WinNT
#	Creation time:	15. 06. 2019 20:29

#	Modifying user name:	WinNT
#	Modification time:	15. 06. 2019 20:29

#	Program:	/corina/corina34_cracker 3.40 0067  02.08.2006

@<TRIPOS>MOLECULE
ASD03090963
  51   54    0    0    0
SMALL
NO_CHARGES


@<TRIPOS>ATOM
   1 N1            -0.0272     1.2777    -0.1042 N.am    
   2 C2            -0.0134    -0.0698    -0.0819 C.2     
   3 O3             1.0482    -0.6686    -0.0903 O.2     
   4 N4            -1.1633    -0.7492    -0.0504 N.2     
   5 S5             0.2342    -3.1049    -0.0346 S.3     
   6 C6            -1.1497    -2.0799    -0.0282 C.2     
   7 N7            -2.2233    -2.9091     0.0044 N.pl3   
   8 C8            -1.9685    -4.2466     0.0229 C.2     
   9 C9            -0.6940    -4.6137     0.0072 C.2     
  10 O10           -7.3917    -0.9235     0.0722 O.3     
  11 C11           -8.4333    -1.7857    -0.3985 C.3     
  12 C12           -8.2342    -3.1695     0.2346 C.3     
  13 O13           -6.9487    -3.6615    -0.1593 O.3     
  14 C14           -5.9049    -2.7932    -0.0621 C.ar    
  15 C15           -6.1257    -1.4252     0.0515 C.ar    
  16 C16           -4.6091    -3.2848    -0.0768 C.ar    
  17 C17           -3.5342    -2.4118     0.0190 C.ar    
  18 C18           -3.7576    -1.0464     0.1296 C.ar    
  19 C19           -5.0492    -0.5560     0.1457 C.ar    
  20 F20           -8.2920    -3.0634     1.6284 F       
  21 F21           -9.2313    -4.0418    -0.2148 F       
  22 F22           -9.6784    -1.2698    -0.0232 F       
  23 F23           -8.3656    -1.8902    -1.7920 F       
  24 C24           -0.1497    -6.0189     0.0223 C.3     
  25 C25            1.2337     2.0228    -0.1388 C.3     
  26 C26            3.3272     2.8237    -3.1801 C.ar    
  27 C27            2.9301     2.7239    -1.8599 C.ar    
  28 C28            1.7031     2.1500    -1.5651 C.ar    
  29 C29            0.9181     1.6954    -2.6140 C.ar    
  30 C30            1.3816     1.8286    -3.9089 C.ar    
  31 N31            2.5545     2.3804    -4.1522 N.ar    
  32 C32            3.8196     3.2327    -0.7550 C.3     
  33 C33           -1.3033     1.9973    -0.1002 C.3     
  34 H34           -2.7663    -4.9740     0.0491 H       
  35 H35           -4.4357    -4.3472    -0.1635 H       
  36 H36           -2.9214    -0.3669     0.2031 H       
  37 H37           -5.2208     0.5068     0.2316 H       
  38 H38            0.9397    -5.9868     0.0037 H       
  39 H39           -0.4828    -6.5279     0.9267 H       
  40 H40           -0.5122    -6.5584    -0.8528 H       
  41 H41            1.0806     3.0160     0.2833 H       
  42 H42            1.9855     1.4918     0.4451 H       
  43 H43            4.2797     3.2735    -3.4185 H       
  44 H44           -0.0433     1.2426    -2.4212 H       
  45 H45            0.7763     1.4770    -4.7313 H       
  46 H46            3.5269     4.2491    -0.4917 H       
  47 H47            3.7193     2.5880     0.1182 H       
  48 H48            4.8562     3.2290    -1.0922 H       
  49 H49           -1.6515     2.1138     0.9262 H       
  50 H50           -1.1677     2.9802    -0.5516 H       
  51 H51           -2.0403     1.4334    -0.6720 H       
@<TRIPOS>BOND
   1    1    2 am
   2    1   25 1
   3    1   33 1
   4    2    3 2
   5    2    4 1
   6    4    6 2
   7    5    6 1
   8    5    9 1
   9    6    7 1
  10    7    8 1
  11    7   17 1
  12    8    9 2
  13    8   34 1
  14    9   24 1
  15   10   11 1
  16   10   15 1
  17   11   12 1
  18   11   22 1
  19   11   23 1
  20   12   13 1
  21   12   20 1
  22   12   21 1
  23   13   14 1
  24   14   15 ar
  25   14   16 ar
  26   15   19 ar
  27   16   17 ar
  28   16   35 1
  29   17   18 ar
  30   18   19 ar
  31   18   36 1
  32   19   37 1
  33   24   38 1
  34   24   39 1
  35   24   40 1
  36   25   28 1
  37   25   41 1
  38   25   42 1
  39   26   27 ar
  40   26   31 ar
  41   26   43 1
  42   27   28 ar
  43   27   32 1
  44   28   29 ar
  45   29   30 ar
  46   29   44 1
  47   30   31 ar
  48   30   45 1
  49   32   46 1
  50   32   47 1
  51   32   48 1
  52   33   49 1
  53   33   50 1
  54   33   51 1

#	End of record

