#	Name: ASD08070206
#	Creating user name:	WinNT
#	Creation time:	15. 06. 2019 21:14

#	Modifying user name:	WinNT
#	Modification time:	15. 06. 2019 21:14

#	Program:	/corina/corina34_cracker 3.40 0067  02.08.2006

@<TRIPOS>MOLECULE
ASD08070206
  38   39    0    0    0
SMALL
NO_CHARGES


@<TRIPOS>ATOM
   1 C1            -0.0180     1.4727     0.0101 C.ar    
   2 C2             0.0021    -0.0041     0.0020 C.2     
   3 O3             0.0204    -0.6175     1.0514 O.2     
   4 N4             0.0001    -0.6716    -1.1688 N.am    
   5 C5             0.0199    -2.1365    -1.1769 C.3     
   6 C6            -0.5952    -2.6477    -2.4812 C.3     
   7 C7            -0.5744    -4.1775    -2.4896 C.3     
   8 C8             1.1805     2.1913     0.0026 C.ar    
   9 C9             1.1537     3.5720     0.0103 C.ar    
  10 C10           -0.0555     4.2437     0.0255 C.ar    
  11 C11           -1.2461     3.5393     0.0335 C.ar    
  12 C12            1.4649    -2.6275    -1.0676 C.3     
  13 C13            1.4856    -4.1573    -1.0760 C.3     
  14 C14            0.8705    -4.6686    -2.3803 C.3     
  15 C15           -1.2355     2.1585     0.0196 C.ar    
  16 Cl16          -2.7309     1.2766     0.0292 Cl      
  17 C17           -2.0401    -2.1566    -2.5905 C.3     
  18 Cl18           2.6992     1.3506    -0.0159 Cl      
  19 C19           -1.3835    -4.7051    -1.3030 C.3     
  20 H20           -0.0145    -0.1822    -2.0061 H       
  21 H21           -0.5565    -2.5123    -0.3315 H       
  22 H22           -0.0188    -2.2718    -3.3265 H       
  23 H23           -1.0126    -4.5417    -3.4188 H       
  24 H24            2.0791     4.1288     0.0048 H       
  25 H25           -0.0702     5.3236     0.0314 H       
  26 H26           -2.1862     4.0707     0.0457 H       
  27 H27            2.0413    -2.2517    -1.9129 H       
  28 H28            1.9031    -2.2633    -0.1384 H       
  29 H29            2.5150    -4.5072    -0.9981 H       
  30 H30            0.9092    -4.5332    -0.2306 H       
  31 H31            0.8853    -5.7585    -2.3863 H       
  32 H32            1.4469    -4.2927    -3.2256 H       
  33 H33           -2.0549    -1.0667    -2.5845 H       
  34 H34           -2.4783    -2.5208    -3.5197 H       
  35 H35           -2.6165    -2.5325    -1.7451 H       
  36 H36           -2.4129    -4.3552    -1.3809 H       
  37 H37           -1.3687    -5.7949    -1.3090 H       
  38 H38           -0.9453    -4.3409    -0.3738 H       
@<TRIPOS>BOND
   1    1    2 1
   2    1    8 ar
   3    1   15 ar
   4    2    3 2
   5    2    4 am
   6    4    5 1
   7    4   20 1
   8    5    6 1
   9    5   12 1
  10    5   21 1
  11    6    7 1
  12    6   17 1
  13    6   22 1
  14    7   19 1
  15    7   14 1
  16    7   23 1
  17    8    9 ar
  18    8   18 1
  19    9   10 ar
  20    9   24 1
  21   10   11 ar
  22   10   25 1
  23   11   15 ar
  24   11   26 1
  25   12   13 1
  26   12   27 1
  27   12   28 1
  28   13   14 1
  29   13   29 1
  30   13   30 1
  31   14   31 1
  32   14   32 1
  33   15   16 1
  34   17   33 1
  35   17   34 1
  36   17   35 1
  37   19   36 1
  38   19   37 1
  39   19   38 1

#	End of record

