#	Name: ASD01884336
#	Creating user name:	WinNT
#	Creation time:	15. 06. 2019 19:48

#	Modifying user name:	WinNT
#	Modification time:	15. 06. 2019 19:48

#	Program:	/corina/corina34_cracker 3.40 0067  02.08.2006

@<TRIPOS>MOLECULE
ASD01884336
  58   59    0    0    0
SMALL
NO_CHARGES


@<TRIPOS>ATOM
   1 C1             0.2263    -1.8247    -1.8857 C.2     
   2 C2             1.1746    -1.7332    -0.8572 C.2     
   3 C3             2.1243    -2.7587    -0.7197 C.2     
   4 C4             2.1131    -3.8096    -1.5707 C.2     
   5 N5             1.1961    -3.9009    -2.5675 N.am    
   6 C6             0.2587    -2.9510    -2.7432 C.2     
   7 O7            -0.5548    -3.0552    -3.6456 O.2     
   8 C8             1.2236    -5.0582    -3.4653 C.3     
   9 C9             0.3411    -6.1691    -2.8925 C.3     
  10 C10           -0.7600    -0.8016    -2.0620 C.1     
  11 N11           -1.5424     0.0101    -2.2019 N.1     
  12 O12            1.1751    -0.6767    -0.0132 O.3     
  13 N13            2.3524     0.1830    -0.1367 N.3     
  14 C14            3.1849     0.1125     1.0716 C.3     
  15 C15            4.4905     0.8786     0.8337 C.3     
  16 N16            4.1587     2.2396     0.3857 N.am    
  17 C17            3.2197     2.3935    -0.7358 C.3     
  18 C18            1.9640     1.5677    -0.4362 C.3     
  19 C19            0.3698    -7.3778    -3.8302 C.3     
  20 C20           -0.4105    -8.5322    -3.1982 C.3     
  21 C21           -0.2708    -7.0010    -5.1676 C.3     
  22 C22            4.7010     3.3172     0.9866 C.2     
  23 O23            5.4754     3.1715     1.9116 O.2     
  24 O24            4.3848     4.5551     0.5620 O.3     
  25 C25            5.0065     5.6689     1.2558 C.3     
  26 C26            6.5275     5.5657     1.1257 C.3     
  27 C27            4.5299     6.9848     0.6377 C.3     
  28 C28            4.6173     5.6297     2.7349 C.3     
  29 H29            2.8639    -2.7078     0.0656 H       
  30 H30            2.8488    -4.5919    -1.4551 H       
  31 H31            0.8489    -4.7660    -4.4463 H       
  32 H32            2.2473    -5.4201    -3.5605 H       
  33 H33            0.7158    -6.4614    -1.9116 H       
  34 H34           -0.6826    -5.8073    -2.7974 H       
  35 H35            2.6488     0.5587     1.9092 H       
  36 H36            3.4106    -0.9297     1.2974 H       
  37 H37            5.0607     0.9273     1.7614 H       
  38 H38            5.0770     0.3733     0.0664 H       
  39 H39            2.9496     3.4437    -0.8458 H       
  40 H40            3.6839     2.0338    -1.6541 H       
  41 H41            1.3044     1.5809    -1.3038 H       
  42 H42            1.4449     1.9937     0.4224 H       
  43 H43            1.4025    -7.6848    -3.9957 H       
  44 H44           -1.4431    -8.2252    -3.0327 H       
  45 H45           -0.3900    -9.3933    -3.8662 H       
  46 H46            0.0460    -8.8006    -2.2454 H       
  47 H47            0.2850    -6.1786    -5.6178 H       
  48 H48           -0.2504    -7.8621    -5.8356 H       
  49 H49           -1.3035    -6.6940    -5.0021 H       
  50 H50            6.8047     5.5936     0.0720 H       
  51 H51            6.9942     6.4018     1.6465 H       
  52 H52            6.8670     4.6282     1.5661 H       
  53 H53            3.4463     7.0583     0.7303 H       
  54 H54            4.9966     7.8209     1.1585 H       
  55 H55            4.8072     7.0128    -0.4161 H       
  56 H56            4.9568     4.6922     3.1753 H       
  57 H57            5.0840     6.4658     3.2557 H       
  58 H58            3.5337     5.7032     2.8276 H       
@<TRIPOS>BOND
   1    1    2 2
   2    1   10 1
   3    1    6 1
   4    2    3 1
   5    2   12 1
   6    3    4 2
   7    3   29 1
   8    4    5 1
   9    4   30 1
  10    5    6 am
  11    5    8 1
  12    6    7 2
  13    8    9 1
  14    8   31 1
  15    8   32 1
  16    9   19 1
  17    9   33 1
  18    9   34 1
  19   10   11 3
  20   12   13 1
  21   13   14 1
  22   13   18 1
  23   14   15 1
  24   14   35 1
  25   14   36 1
  26   15   16 1
  27   15   37 1
  28   15   38 1
  29   16   17 1
  30   16   22 am
  31   17   18 1
  32   17   39 1
  33   17   40 1
  34   18   41 1
  35   18   42 1
  36   19   20 1
  37   19   21 1
  38   19   43 1
  39   20   44 1
  40   20   45 1
  41   20   46 1
  42   21   47 1
  43   21   48 1
  44   21   49 1
  45   22   23 2
  46   22   24 1
  47   24   25 1
  48   25   26 1
  49   25   27 1
  50   25   28 1
  51   26   50 1
  52   26   51 1
  53   26   52 1
  54   27   53 1
  55   27   54 1
  56   27   55 1
  57   28   56 1
  58   28   57 1
  59   28   58 1

#	End of record

