#	Name: ASD01410885
#	Creating user name:	WinNT
#	Creation time:	15. 06. 2019 19:18

#	Modifying user name:	WinNT
#	Modification time:	15. 06. 2019 19:18

#	Program:	/corina/corina34_cracker 3.40 0067  02.08.2006

@<TRIPOS>MOLECULE
ASD01410885
  64   66    0    0    0
SMALL
NO_CHARGES


@<TRIPOS>ATOM
   1 C1            -0.8545     2.4264     0.7238 C.ar    
   2 C2            -1.4930     0.1231     0.4731 C.ar    
   3 C3            -2.8092     0.5064     0.2560 C.ar    
   4 C4            -3.1527     1.8666     0.2850 C.ar    
   5 C5            -2.1624     2.8246     0.5150 C.ar    
   6 O6             0.1090     3.3579     0.9534 O.3     
   7 C7             0.9499     3.6686    -0.0649 C.ar    
   8 N8            -3.7886    -0.4575     0.0212 N.am    
   9 C9            -4.3956    -1.0680     1.0582 C.2     
  10 C10           -4.0828    -0.6441     2.4701 C.3     
  11 O11           -5.1934    -1.9585     0.8550 O.2     
  12 C12           -5.3130    -0.8637     3.3529 C.3     
  13 C13           -2.5982    -1.0454     4.4391 C.3     
  14 C14           -3.8284    -1.2651     5.3219 C.3     
  15 C15           -4.9955    -0.4333     4.7863 C.3     
  16 C16           -3.5109    -0.8347     6.7554 C.3     
  17 N17            0.8554     3.0197    -1.2139 N.ar    
  18 C18            1.8981     4.6689     0.1070 C.ar    
  19 C19            2.7498     4.9766    -0.9399 C.ar    
  20 C20            2.6219     4.2691    -2.1271 C.ar    
  21 C21            1.6528     3.2906    -2.2294 C.ar    
  22 C22           -2.9157    -1.4758     3.0057 C.3     
  23 C23           -0.5229     1.0769     0.7056 C.ar    
  24 C24           -4.1581    -0.8068    -1.3528 C.3     
  25 C25           -3.1934    -1.8677    -1.8863 C.3     
  26 O26           -3.3483    -3.0733    -1.1350 O.3     
  27 C27           -2.4882    -4.1344    -1.5550 C.3     
  28 C28           -2.7390    -5.3685    -0.6860 C.3     
  29 C29            1.9980     5.4097     1.4156 C.3     
  30 F30            3.0220     6.3597     1.3367 F       
  31 F31            0.7845     6.0531     1.6810 F       
  32 F32            2.2804     4.5040     2.4438 F       
  33 C33           -4.5477     2.2836     0.0551 C.2     
  34 O34           -5.4037     1.4486    -0.1602 O.2     
  35 O35           -4.8736     3.5908     0.0838 O.3     
  36 H36           -1.2258    -0.9231     0.4513 H       
  37 H37           -2.4175     3.8739     0.5300 H       
  38 H38           -3.8117     0.4116     2.4809 H       
  39 H39           -6.1445    -0.2711     2.9713 H       
  40 H40           -5.5841    -1.9194     3.3421 H       
  41 H41           -2.3271     0.0103     4.4499 H       
  42 H42           -1.7667    -1.6380     4.8207 H       
  43 H43           -4.0995    -2.3208     5.3111 H       
  44 H44           -4.7244     0.6224     4.7971 H       
  45 H45           -5.8720    -0.5898     5.4152 H       
  46 H46           -3.2398     0.2210     6.7662 H       
  47 H47           -4.3873    -0.9912     7.3843 H       
  48 H48           -2.6794    -1.4273     7.1369 H       
  49 H49            3.4966     5.7497    -0.8354 H       
  50 H50            3.2704     4.4846    -2.9634 H       
  51 H51            1.5493     2.7370    -3.1510 H       
  52 H52           -3.1868    -2.5315     2.9949 H       
  53 H53           -2.0393    -1.3193     2.3768 H       
  54 H54            0.4997     0.7729     0.8739 H       
  55 H55           -5.1746    -1.2000    -1.3668 H       
  56 H56           -4.1038     0.0824    -1.9808 H       
  57 H57           -3.4125    -2.0630    -2.9360 H       
  58 H58           -2.1688    -1.5085    -1.7897 H       
  59 H59           -2.6927    -4.3768    -2.5978 H       
  60 H60           -1.4490    -3.8223    -1.4515 H       
  61 H61           -2.5345    -5.1261     0.3569 H       
  62 H62           -3.7782    -5.6806    -0.7894 H       
  63 H63           -2.0830    -6.1778    -1.0063 H       
  64 H64           -5.8010     3.8156    -0.0726 H       
@<TRIPOS>BOND
   1    1   23 ar
   2    1    6 1
   3    1    5 ar
   4    2    3 ar
   5    2   23 ar
   6    2   36 1
   7    3    4 ar
   8    3    8 1
   9    4    5 ar
  10    4   33 1
  11    5   37 1
  12    6    7 1
  13    7   18 ar
  14    7   17 ar
  15    8    9 am
  16    8   24 1
  17    9   11 2
  18    9   10 1
  19   10   12 1
  20   10   22 1
  21   10   38 1
  22   12   15 1
  23   12   39 1
  24   12   40 1
  25   13   14 1
  26   13   22 1
  27   13   41 1
  28   13   42 1
  29   14   15 1
  30   14   16 1
  31   14   43 1
  32   15   44 1
  33   15   45 1
  34   16   46 1
  35   16   47 1
  36   16   48 1
  37   17   21 ar
  38   18   19 ar
  39   18   29 1
  40   19   20 ar
  41   19   49 1
  42   20   21 ar
  43   20   50 1
  44   21   51 1
  45   22   52 1
  46   22   53 1
  47   23   54 1
  48   24   25 1
  49   24   55 1
  50   24   56 1
  51   25   26 1
  52   25   57 1
  53   25   58 1
  54   26   27 1
  55   27   28 1
  56   27   59 1
  57   27   60 1
  58   28   61 1
  59   28   62 1
  60   28   63 1
  61   29   30 1
  62   29   31 1
  63   29   32 1
  64   33   34 2
  65   33   35 1
  66   35   64 1

#	End of record

