#	Name: ASD01884519
#	Creating user name:	WinNT
#	Creation time:	15. 06. 2019 19:48

#	Modifying user name:	WinNT
#	Modification time:	15. 06. 2019 19:48

#	Program:	/corina/corina34_cracker 3.40 0067  02.08.2006

@<TRIPOS>MOLECULE
ASD01884519
  35   36    0    0    0
SMALL
NO_CHARGES


@<TRIPOS>ATOM
   1 C1            -0.0164     1.3597     0.0095 C.2     
   2 C2             0.0021    -0.0041     0.0020 C.2     
   3 C3             1.2369    -0.6740    -0.0134 C.2     
   4 C4             2.3922     0.0384    -0.0206 C.2     
   5 N5             2.3674     1.3982    -0.0126 N.am    
   6 C6             1.1981     2.0656     0.0017 C.2     
   7 C7             3.6275     2.1453    -0.0201 C.3     
   8 O8             1.1934     3.2866     0.0087 O.2     
   9 C9             4.0463     2.4096    -1.4434 C.ar    
  10 C10            3.6277     3.5607    -2.0844 C.ar    
  11 C11            4.0115     3.8037    -3.3898 C.ar    
  12 C12            4.8147     2.8946    -4.0550 C.ar    
  13 C13            5.2333     1.7427    -3.4130 C.ar    
  14 C14            4.8535     1.5036    -2.1057 C.ar    
  15 Cl15           5.2967     3.1988    -5.6948 Cl      
  16 O16            1.2746    -2.0344    -0.0206 O.3     
  17 C17            2.5653    -2.6475    -0.0362 C.3     
  18 C18            2.4069    -4.1693    -0.0424 C.3     
  19 C19            3.7888    -4.8258    -0.0591 C.3     
  20 H20           -0.9561     1.8920     0.0169 H       
  21 H21           -0.9222    -0.5627     0.0082 H       
  22 H22            3.3399    -0.4794    -0.0324 H       
  23 H23            3.4910     3.0932     0.5004 H       
  24 H24            4.3987     1.5622     0.4832 H       
  25 H25            3.0004     4.2701    -1.5651 H       
  26 H26            3.6841     4.7028    -3.8906 H       
  27 H27            5.8604     1.0327    -3.9317 H       
  28 H28            5.1803     0.6045    -1.6044 H       
  29 H29            3.1053    -2.3348    -0.9299 H       
  30 H30            3.1226    -2.3438     0.8499 H       
  31 H31            1.8669    -4.4820     0.8514 H       
  32 H32            1.8496    -4.4731    -0.9285 H       
  33 H33            4.3288    -4.5131    -0.9528 H       
  34 H34            4.3461    -4.5221     0.8270 H       
  35 H35            3.6760    -5.9100    -0.0635 H       
@<TRIPOS>BOND
   1    1    2 2
   2    1    6 1
   3    1   20 1
   4    2    3 1
   5    2   21 1
   6    3    4 2
   7    3   16 1
   8    4    5 1
   9    4   22 1
  10    5    6 am
  11    5    7 1
  12    6    8 2
  13    7    9 1
  14    7   23 1
  15    7   24 1
  16    9   10 ar
  17    9   14 ar
  18   10   11 ar
  19   10   25 1
  20   11   12 ar
  21   11   26 1
  22   12   13 ar
  23   12   15 1
  24   13   14 ar
  25   13   27 1
  26   14   28 1
  27   16   17 1
  28   17   18 1
  29   17   29 1
  30   17   30 1
  31   18   19 1
  32   18   31 1
  33   18   32 1
  34   19   33 1
  35   19   34 1
  36   19   35 1

#	End of record

