#	Name: ASD01911890
#	Creating user name:	WinNT
#	Creation time:	15. 06. 2019 19:58

#	Modifying user name:	WinNT
#	Modification time:	15. 06. 2019 19:58

#	Program:	/corina/corina34_cracker 3.40 0067  02.08.2006

@<TRIPOS>MOLECULE
ASD01911890
  40   42    0    0    0
SMALL
NO_CHARGES


@<TRIPOS>ATOM
   1 C1            -1.0604    -0.5026    -2.0835 C.ar    
   2 C2            -1.0562     0.0558    -0.8088 C.ar    
   3 C3            -1.0051     1.4360    -0.6782 C.ar    
   4 N4            -0.9614     2.2114    -1.7435 N.ar    
   5 C5            -0.9640     1.7143    -2.9648 C.ar    
   6 C6            -1.0130     0.3487    -3.1752 C.ar    
   7 O7            -1.1020    -0.7394     0.2922 O.3     
   8 C8            -1.1524    -2.0845     0.1060 C.ar    
   9 C9            -0.0018    -2.7819    -0.2364 C.ar    
  10 C10           -0.0516    -4.1495    -0.4266 C.ar    
  11 C11           -1.2460    -4.8276    -0.2763 C.ar    
  12 C12           -2.4005    -4.1351     0.0661 C.ar    
  13 C13           -2.3513    -2.7619     0.2632 C.ar    
  14 N14           -3.6095    -4.8213     0.2177 N.am    
  15 C15           -4.7718    -4.2168    -0.0988 C.2     
  16 C16           -6.0558    -4.9026     0.1589 C.ar    
  17 O17           -4.7642    -3.1076    -0.5961 O.2     
  18 C18           -6.0662    -6.1771     0.7303 C.ar    
  19 C19           -7.2647    -6.8195     0.9713 C.ar    
  20 C20           -8.4599    -6.2080     0.6498 C.ar    
  21 C21           -8.4642    -4.9330     0.0776 C.ar    
  22 C22           -7.2585    -4.2766    -0.1625 C.ar    
  23 C23           -9.7047    -4.3001    -0.2557 C.1     
  24 C24           -1.0149    -0.2071    -4.5760 C.3     
  25 N25          -10.6888    -3.7980    -0.5202 N.1     
  26 F26           -0.9623     0.8459    -5.4956 F       
  27 F27            0.0992    -1.0350    -4.7507 F       
  28 F28           -2.1835    -0.9482    -4.7820 F       
  29 H29           -1.0951    -1.5736    -2.2181 H       
  30 H30           -1.0014     1.8799     0.3064 H       
  31 H31           -0.9277     2.3830    -3.8121 H       
  32 H32            0.9334    -2.2547    -0.3545 H       
  33 H33            0.8448    -4.6895    -0.6935 H       
  34 H34           -1.2821    -5.8966    -0.4256 H       
  35 H35           -3.2474    -2.2211     0.5296 H       
  36 H36           -3.6117    -5.7324     0.5507 H       
  37 H37           -5.1348    -6.6614     0.9839 H       
  38 H38           -7.2669    -7.8051     1.4129 H       
  39 H39           -9.3935    -6.7162     0.8406 H       
  40 H40           -7.2560    -3.2912    -0.6045 H       
@<TRIPOS>BOND
   1    1    2 ar
   2    1    6 ar
   3    1   29 1
   4    2    3 ar
   5    2    7 1
   6    3    4 ar
   7    3   30 1
   8    4    5 ar
   9    5    6 ar
  10    5   31 1
  11    6   24 1
  12    7    8 1
  13    8    9 ar
  14    8   13 ar
  15    9   10 ar
  16    9   32 1
  17   10   11 ar
  18   10   33 1
  19   11   12 ar
  20   11   34 1
  21   12   13 ar
  22   12   14 1
  23   13   35 1
  24   14   15 am
  25   14   36 1
  26   15   16 1
  27   15   17 2
  28   16   18 ar
  29   16   22 ar
  30   18   19 ar
  31   18   37 1
  32   19   20 ar
  33   19   38 1
  34   20   21 ar
  35   20   39 1
  36   21   22 ar
  37   21   23 1
  38   22   40 1
  39   23   25 3
  40   24   26 1
  41   24   27 1
  42   24   28 1

#	End of record

