#	Name: ASD03080040
#	Creating user name:	WinNT
#	Creation time:	15. 06. 2019 20:26

#	Modifying user name:	WinNT
#	Modification time:	15. 06. 2019 20:26

#	Program:	/corina/corina34_cracker 3.40 0067  02.08.2006

@<TRIPOS>MOLECULE
ASD03080040
  26   28    0    0    0
SMALL
NO_CHARGES


@<TRIPOS>ATOM
   1 O1            -0.0144     1.2085     0.0087 O.3     
   2 N2             0.0021    -0.0041     0.0020 N.2     
   3 C3             1.2349    -0.4421    -0.0121 C.2     
   4 N4             2.0456     0.6366    -0.0141 N.2     
   5 C5             1.2411     1.6828    -0.0008 C.2     
   6 C6             3.0158    -2.1952    -0.0374 C.ar    
   7 C7             1.6628    -1.8635    -0.0231 C.ar    
   8 C8             0.7152    -2.8901    -0.0188 C.ar    
   9 C9             1.1654    -4.1994    -0.0290 C.ar    
  10 C10            2.5257    -4.4467    -0.0430 C.ar    
  11 N11            3.3969    -3.4560    -0.0462 N.ar    
  12 C12            1.6453     3.1045     0.0023 C.ar    
  13 C13            0.6755     4.1085     0.0167 C.ar    
  14 C14            1.0597     5.4351     0.0194 C.ar    
  15 C15            2.4061     5.7691     0.0074 C.ar    
  16 C16            3.3705     4.7764    -0.0073 C.ar    
  17 C17            2.9980     3.4480    -0.0034 C.ar    
  18 F18            0.1231     6.4087     0.0333 F       
  19 Cl19           2.8830     7.4383     0.0103 Cl      
  20 H20            3.7588    -1.4115    -0.0453 H       
  21 H21           -0.3417    -2.6680    -0.0075 H       
  22 H22            0.4617    -5.0186    -0.0257 H       
  23 H23            2.8806    -5.4667    -0.0509 H       
  24 H24           -0.3727     3.8485     0.0253 H       
  25 H25            4.4172     5.0423    -0.0173 H       
  26 H26            3.7522     2.6749    -0.0097 H       
@<TRIPOS>BOND
   1    1    2 1
   2    1    5 1
   3    2    3 2
   4    3    4 1
   5    3    7 1
   6    4    5 2
   7    5   12 1
   8    6    7 ar
   9    6   11 ar
  10    6   20 1
  11    7    8 ar
  12    8    9 ar
  13    8   21 1
  14    9   10 ar
  15    9   22 1
  16   10   11 ar
  17   10   23 1
  18   12   13 ar
  19   12   17 ar
  20   13   14 ar
  21   13   24 1
  22   14   15 ar
  23   14   18 1
  24   15   16 ar
  25   15   19 1
  26   16   17 ar
  27   16   25 1
  28   17   26 1

#	End of record

