#	Name: ASD01914007
#	Creating user name:	WinNT
#	Creation time:	15. 06. 2019 20:02

#	Modifying user name:	WinNT
#	Modification time:	15. 06. 2019 20:02

#	Program:	/corina/corina34_cracker 3.40 0067  02.08.2006

@<TRIPOS>MOLECULE
ASD01914007
  56   60    0    0    0
SMALL
NO_CHARGES


@<TRIPOS>ATOM
   1 C1            -0.0152     1.3751    -0.2064 C.ar    
   2 C2             0.0030    -0.0063    -0.1504 C.ar    
   3 C3             1.2078    -0.6825    -0.0951 C.ar    
   4 C4             2.3811     1.4071    -0.1517 C.ar    
   5 C5             1.1709     2.0832    -0.2072 C.ar    
   6 O6             3.5493     2.1015    -0.1519 O.3     
   7 C7             4.7569     1.3397    -0.0931 C.3     
   8 C8             5.9403     2.2726    -0.1024 C.ar    
   9 N9             7.1605     1.7733    -0.0538 N.ar    
  10 C10            8.2282     2.5442    -0.0594 C.ar    
  11 C11            8.1008     3.9324    -0.1173 C.ar    
  12 C12            6.8184     4.4922    -0.1698 C.ar    
  13 C13            5.7296     3.6384    -0.1676 C.ar    
  14 C14            9.2995     4.7977    -0.1226 C.2     
  15 N15           10.5284     4.2469    -0.0712 N.am    
  16 O16            9.1766     6.0059    -0.1733 O.2     
  17 C17           11.7163     5.1043    -0.0765 C.3     
  18 C18            2.3967     0.0210    -0.0956 C.ar    
  19 C19           12.8285     4.3620     0.6284 C.3     
  20 C20           11.9683     5.5335    -1.4896 C.3     
  21 C21           11.6524     4.5272    -2.5609 C.3     
  22 C22           11.9491     3.1043    -2.2074 C.3     
  23 C23           12.9055     2.9152     0.1314 C.3     
  24 C24           13.1634     2.9112    -1.3548 C.3     
  25 C25           14.3552     3.7503    -1.7641 C.3     
  26 C26           14.4035     5.1220    -1.1175 C.3     
  27 C27           14.1882     5.0227     0.3949 C.3     
  28 C28           13.3770     6.0868    -1.6973 C.3     
  29 H29           -0.9574     1.9007    -0.2541 H       
  30 H30           -0.9254    -0.5581    -0.1496 H       
  31 H31            1.2194    -1.7615    -0.0511 H       
  32 H32            1.1562     3.1622    -0.2513 H       
  33 H33            4.7685     0.7472     0.8218 H       
  34 H34            4.8103     0.6763    -0.9563 H       
  35 H35            9.2109     2.0981    -0.0185 H       
  36 H36            6.6827     5.5627    -0.2153 H       
  37 H37            4.7256     4.0344    -0.2072 H       
  38 H38           10.6265     3.2827    -0.0308 H       
  39 H39           11.4852     5.9952     0.5076 H       
  40 H40            3.3375    -0.5076    -0.0524 H       
  41 H41           12.6276     4.3575     1.6998 H       
  42 H42           11.3044     6.3790    -1.6696 H       
  43 H43           10.5927     4.6062    -2.8036 H       
  44 H44           12.2238     4.7851    -3.4526 H       
  45 H45           11.0884     2.6937    -1.6794 H       
  46 H46           12.0831     2.5406    -3.1306 H       
  47 H47           13.7171     2.3975     0.6428 H       
  48 H48           11.9628     2.4087     0.3385 H       
  49 H49           13.4713     1.8880    -1.5698 H       
  50 H50           15.2652     3.2111    -1.5008 H       
  51 H51           14.3335     3.8781    -2.8463 H       
  52 H52           15.3919     5.5467    -1.2926 H       
  53 H53           14.1951     6.0197     0.8354 H       
  54 H54           14.9757     4.4153     0.8411 H       
  55 H55           13.5623     6.2146    -2.7638 H       
  56 H56           13.4644     7.0517    -1.1978 H       
@<TRIPOS>BOND
   1    1    2 ar
   2    1    5 ar
   3    1   29 1
   4    2    3 ar
   5    2   30 1
   6    3   18 ar
   7    3   31 1
   8    4    5 ar
   9    4    6 1
  10    4   18 ar
  11    5   32 1
  12    6    7 1
  13    7    8 1
  14    7   33 1
  15    7   34 1
  16    8    9 ar
  17    8   13 ar
  18    9   10 ar
  19   10   11 ar
  20   10   35 1
  21   11   12 ar
  22   11   14 1
  23   12   13 ar
  24   12   36 1
  25   13   37 1
  26   14   15 am
  27   14   16 2
  28   15   17 1
  29   15   38 1
  30   17   19 1
  31   17   20 1
  32   17   39 1
  33   18   40 1
  34   19   23 1
  35   19   27 1
  36   19   41 1
  37   20   21 1
  38   20   28 1
  39   20   42 1
  40   21   22 1
  41   21   43 1
  42   21   44 1
  43   22   24 1
  44   22   45 1
  45   22   46 1
  46   23   24 1
  47   23   47 1
  48   23   48 1
  49   24   25 1
  50   24   49 1
  51   25   26 1
  52   25   50 1
  53   25   51 1
  54   26   27 1
  55   26   28 1
  56   26   52 1
  57   27   53 1
  58   27   54 1
  59   28   55 1
  60   28   56 1

#	End of record

