#	Name: ASD01940409
#	Creating user name:	WinNT
#	Creation time:	15. 06. 2019 20:12

#	Modifying user name:	WinNT
#	Modification time:	15. 06. 2019 20:12

#	Program:	/corina/corina34_cracker 3.40 0067  02.08.2006

@<TRIPOS>MOLECULE
ASD01940409
  49   51    0    0    0
SMALL
NO_CHARGES


@<TRIPOS>ATOM
   1 C1            -0.2586     0.8572     0.1908 C.ar    
   2 C2            -0.4655    -0.5088     0.3763 C.ar    
   3 C3             0.6068    -1.3557     0.4259 C.ar    
   4 C4             1.9013    -0.8620     0.2929 C.ar    
   5 C5             2.1219     0.4953     0.1082 C.ar    
   6 C6             1.0459     1.3626     0.0553 C.ar    
   7 O7             1.2200     2.6928    -0.1240 O.3     
   8 C8             0.1738     3.5302    -0.1738 C.2     
   9 N9            -1.0976     3.1158    -0.0512 N.am    
  10 C10           -1.3833     1.8078     0.1371 C.2     
  11 C11           -2.1872     4.0929    -0.1155 C.3     
  12 C12           -2.6382     4.2491    -1.5449 C.ar    
  13 C13           -2.2024     5.3247    -2.2939 C.ar    
  14 C14           -2.6157     5.4687    -3.6054 C.ar    
  15 C15           -3.4665     4.5369    -4.1720 C.ar    
  16 C16           -3.9056     3.4590    -3.4290 C.ar    
  17 C17           -3.4880     3.3084    -2.1125 C.ar    
  18 O18           -2.5323     1.4271     0.2532 O.2     
  19 O19            0.3855     4.7155    -0.3366 O.2     
  20 O20            2.9564    -1.7151     0.3447 O.3     
  21 C21            3.6947    -1.7069     1.4713 C.2     
  22 O22            3.4496    -0.9070     2.3526 O.2     
  23 N23            4.7053    -2.5859     1.6211 N.am    
  24 C24            5.5083    -2.5771     2.8464 C.3     
  25 C25            5.0008    -3.5503     0.5587 C.3     
  26 N26           -3.9264     2.2167    -1.3596 N.am    
  27 S27           -4.1336     0.7416    -2.0832 S.o2    
  28 O28           -4.4903    -0.1255    -1.0154 O.2     
  29 O29           -5.0355     0.9985    -3.1508 O.2     
  30 C30           -2.4909     0.3179    -2.7256 C.3     
  31 H31           -1.4681    -0.8963     0.4808 H       
  32 H32            0.4483    -2.4143     0.5696 H       
  33 H33            3.1287     0.8727     0.0063 H       
  34 H34           -3.0224     3.7465     0.4932 H       
  35 H35           -1.8365     5.0535     0.2618 H       
  36 H36           -1.5384     6.0543    -1.8544 H       
  37 H37           -2.2738     6.3108    -4.1887 H       
  38 H38           -3.7880     4.6527    -5.1965 H       
  39 H39           -4.5698     2.7317    -3.8720 H       
  40 H40            5.0593    -3.2468     3.5799 H       
  41 H41            6.5205    -2.9123     2.6200 H       
  42 H42            5.5426    -1.5655     3.2510 H       
  43 H43            4.3040    -3.4061    -0.2670 H       
  44 H44            6.0205    -3.3993     0.2042 H       
  45 H45            4.8979    -4.5631     0.9483 H       
  46 H46           -4.1095     2.3225    -0.4130 H       
  47 H47           -1.7795     0.2704    -1.9011 H       
  48 H48           -2.5344    -0.6505    -3.2242 H       
  49 H49           -2.1717     1.0791    -3.4375 H       
@<TRIPOS>BOND
   1    1    2 ar
   2    1    6 ar
   3    1   10 1
   4    2    3 ar
   5    2   31 1
   6    3    4 ar
   7    3   32 1
   8    4    5 ar
   9    4   20 1
  10    5    6 ar
  11    5   33 1
  12    6    7 1
  13    7    8 1
  14    8    9 am
  15    8   19 2
  16    9   10 am
  17    9   11 1
  18   10   18 2
  19   11   12 1
  20   11   34 1
  21   11   35 1
  22   12   13 ar
  23   12   17 ar
  24   13   14 ar
  25   13   36 1
  26   14   15 ar
  27   14   37 1
  28   15   16 ar
  29   15   38 1
  30   16   17 ar
  31   16   39 1
  32   17   26 1
  33   20   21 1
  34   21   22 2
  35   21   23 am
  36   23   24 1
  37   23   25 1
  38   24   40 1
  39   24   41 1
  40   24   42 1
  41   25   43 1
  42   25   44 1
  43   25   45 1
  44   26   27 am
  45   26   46 1
  46   27   28 2
  47   27   29 2
  48   27   30 1
  49   30   47 1
  50   30   48 1
  51   30   49 1

#	End of record

