#	Name: ASD01900533
#	Creating user name:	WinNT
#	Creation time:	15. 06. 2019 19:52

#	Modifying user name:	WinNT
#	Modification time:	15. 06. 2019 19:52

#	Program:	/corina/corina34_cracker 3.40 0067  02.08.2006

@<TRIPOS>MOLECULE
ASD01900533
  33   35    0    0    0
SMALL
NO_CHARGES


@<TRIPOS>ATOM
   1 O1             4.4651    -2.6615    -2.0332 O.3     
   2 N2             3.1551    -2.8564    -1.5398 N.2     
   3 C3             2.8534    -1.8982    -0.7079 C.2     
   4 C4             4.0192    -1.0045    -0.6311 C.ar    
   5 C5             4.9901    -1.5448    -1.4871 C.ar    
   6 C6             6.2179    -0.9044    -1.6217 C.ar    
   7 C7             6.4710     0.2535    -0.9147 C.ar    
   8 C8             5.5102     0.7869    -0.0680 C.ar    
   9 C9             4.2894     0.1670     0.0773 C.ar    
  10 N10            1.6549    -1.7492    -0.0227 N.pl3   
  11 C11            0.6729    -2.7399    -0.1090 C.ar    
  12 C12            1.0368    -4.0627    -0.3221 C.ar    
  13 C13            0.0602    -5.0421    -0.4070 C.ar    
  14 C14           -1.2788    -4.6989    -0.2790 C.ar    
  15 C15           -1.6393    -3.3820    -0.0669 C.ar    
  16 C16           -0.6684    -2.4033     0.0242 C.ar    
  17 O17            0.4130    -6.3377    -0.6160 O.3     
  18 C18           -0.6460    -7.2942    -0.6928 C.3     
  19 C19           -0.0589    -8.6871    -0.9297 C.3     
  20 F20           -1.3664    -7.2895     0.5064 F       
  21 F21           -1.4990    -6.9615    -1.7506 F       
  22 F22           -1.0957    -9.6234    -1.0049 F       
  23 F23            0.6615    -8.6917    -2.1290 F       
  24 F24            0.7941    -9.0197     0.1280 F       
  25 F25            7.1612    -1.4155    -2.4428 F       
  26 H26            7.4250     0.7484    -1.0212 H       
  27 H27            5.7210     1.6932     0.4802 H       
  28 H28            3.5438     0.5858     0.7370 H       
  29 H29            1.4992    -0.9576     0.5157 H       
  30 H30            2.0790    -4.3278    -0.4218 H       
  31 H31           -2.0399    -5.4623    -0.3456 H       
  32 H32           -2.6818    -3.1179     0.0324 H       
  33 H33           -0.9526    -1.3754     0.1948 H       
@<TRIPOS>BOND
   1    1    2 1
   2    1    5 1
   3    2    3 2
   4    3    4 1
   5    3   10 1
   6    4    5 ar
   7    4    9 ar
   8    5    6 ar
   9    6    7 ar
  10    6   25 1
  11    7    8 ar
  12    7   26 1
  13    8    9 ar
  14    8   27 1
  15    9   28 1
  16   10   11 1
  17   10   29 1
  18   11   12 ar
  19   11   16 ar
  20   12   13 ar
  21   12   30 1
  22   13   14 ar
  23   13   17 1
  24   14   15 ar
  25   14   31 1
  26   15   16 ar
  27   15   32 1
  28   16   33 1
  29   17   18 1
  30   18   19 1
  31   18   20 1
  32   18   21 1
  33   19   22 1
  34   19   23 1
  35   19   24 1

#	End of record

