#	Name: ASD01028661
#	Creating user name:	WinNT
#	Creation time:	15. 06. 2019 18:57

#	Modifying user name:	WinNT
#	Modification time:	15. 06. 2019 18:57

#	Program:	/corina/corina34_cracker 3.40 0067  02.08.2006

@<TRIPOS>MOLECULE
ASD01028661
  15   15    0    0    0
SMALL
NO_CHARGES


@<TRIPOS>ATOM
   1 N1            -0.0169     1.3966     0.0097 N.pl3   
   2 N2             0.0021    -0.0041     0.0020 N.2     
   3 C3             1.2503    -0.3962    -0.0120 C.2     
   4 C4             2.0658     0.7407    -0.0137 C.2     
   5 C5             1.2619     1.8297    -0.0002 C.2     
   6 C6            -1.2132     2.2423     0.0202 C.3     
   7 C7            -2.1133     1.8671    -1.1587 C.3     
   8 F8            -2.4905     0.5244    -1.0486 F       
   9 F9            -3.2557     2.6746    -1.1486 F       
  10 F10           -1.4170     2.0591    -2.3567 F       
  11 Br11           3.9567     0.7537    -0.0307 Br      
  12 H12            1.5921    -1.4207    -0.0205 H       
  13 H13            1.5853     2.8601     0.0017 H       
  14 H14           -1.7557     2.0926     0.9537 H       
  15 H15           -0.9193     3.2884    -0.0655 H       
@<TRIPOS>BOND
   1    1    2 1
   2    1    5 1
   3    1    6 1
   4    2    3 2
   5    3    4 1
   6    3   12 1
   7    4    5 2
   8    4   11 1
   9    5   13 1
  10    6    7 1
  11    6   14 1
  12    6   15 1
  13    7    8 1
  14    7    9 1
  15    7   10 1

#	End of record

