#	Name: ASD04880175
#	Creating user name:	WinNT
#	Creation time:	15. 06. 2019 20:52

#	Modifying user name:	WinNT
#	Modification time:	15. 06. 2019 20:52

#	Program:	/corina/corina34_cracker 3.40 0067  02.08.2006

@<TRIPOS>MOLECULE
ASD04880175
  40   41    0    0    0
SMALL
NO_CHARGES


@<TRIPOS>ATOM
   1 C1            -0.0144     1.2089     0.0087 C.2     
   2 O2             0.0021    -0.0041     0.0020 O.2     
   3 C3             1.2803     1.9801     0.0005 C.3     
   4 C4             2.4566     1.0018    -0.0160 C.3     
   5 C5             1.3375     2.8675    -1.2446 C.3     
   6 N6            -1.1906     1.8669     0.0178 N.am    
   7 N7            -1.3446     3.2517     0.0256 N.2     
   8 C8            -2.5714     3.6449     0.0329 C.2     
   9 C9            -3.4874     2.4419     0.0307 C.3     
  10 C10           -2.5220     1.2401     0.0148 C.3     
  11 C11           -3.0141     5.0510     0.0425 C.ar    
  12 C12           -2.0711     6.0821     0.0437 C.ar    
  13 C13           -2.4917     7.3989     0.0522 C.ar    
  14 C14           -3.8529     7.6955     0.0600 C.ar    
  15 C15           -4.7894     6.6720     0.0589 C.ar    
  16 C16           -4.3776     5.3561     0.0446 C.ar    
  17 O17           -4.2644     8.9910     0.0693 O.3     
  18 C18           -5.6743     9.2238     0.0770 C.3     
  19 O19           -1.5766     8.4049     0.0533 O.3     
  20 C20           -0.1982     8.0281     0.0455 C.3     
  21 H21            1.3381     2.6027     0.8933 H       
  22 H22            2.3988     0.3792    -0.9088 H       
  23 H23            3.3930     1.5596    -0.0220 H       
  24 H24            2.4158     0.3697     0.8710 H       
  25 H25            1.2798     2.2449    -2.1375 H       
  26 H26            0.4995     3.5644    -1.2329 H       
  27 H27            2.2740     3.4253    -1.2506 H       
  28 H28           -4.1041     2.4292     0.9294 H       
  29 H29           -4.1118     2.4384    -0.8627 H       
  30 H30           -2.6634     0.6442    -0.8868 H       
  31 H31           -2.6597     0.6278     0.9060 H       
  32 H32           -1.0162     5.8509     0.0383 H       
  33 H33           -5.8437     6.9065     0.0650 H       
  34 H34           -5.1088     4.5613     0.0392 H       
  35 H35           -5.8653    10.2970     0.0840 H       
  36 H36           -6.1205     8.7812    -0.8135 H       
  37 H37           -6.1124     8.7710     0.9664 H       
  38 H38            0.0206     7.4321     0.9315 H       
  39 H39            0.0130     7.4411    -0.8484 H       
  40 H40            0.4233     8.9235     0.0473 H       
@<TRIPOS>BOND
   1    1    2 2
   2    1    3 1
   3    1    6 am
   4    3    4 1
   5    3    5 1
   6    3   21 1
   7    4   22 1
   8    4   23 1
   9    4   24 1
  10    5   25 1
  11    5   26 1
  12    5   27 1
  13    6    7 1
  14    6   10 1
  15    7    8 2
  16    8    9 1
  17    8   11 1
  18    9   10 1
  19    9   28 1
  20    9   29 1
  21   10   30 1
  22   10   31 1
  23   11   12 ar
  24   11   16 ar
  25   12   13 ar
  26   12   32 1
  27   13   14 ar
  28   13   19 1
  29   14   15 ar
  30   14   17 1
  31   15   16 ar
  32   15   33 1
  33   16   34 1
  34   17   18 1
  35   18   35 1
  36   18   36 1
  37   18   37 1
  38   19   20 1
  39   20   38 1
  40   20   39 1
  41   20   40 1

#	End of record

