#	Name: ASD01910504
#	Creating user name:	WinNT
#	Creation time:	15. 06. 2019 19:56

#	Modifying user name:	WinNT
#	Modification time:	15. 06. 2019 19:56

#	Program:	/corina/corina34_cracker 3.40 0067  02.08.2006

@<TRIPOS>MOLECULE
ASD01910504
  42   45    0    0    0
SMALL
NO_CHARGES


@<TRIPOS>ATOM
   1 N1             0.0807     0.1658     0.1035 N.2     
   2 C2             0.1252    -1.0141     0.6714 C.2     
   3 N3             1.4314    -1.3154     0.8617 N.2     
   4 C4             2.1001    -0.2917     0.3937 C.2     
   5 O5             1.2047     0.5907    -0.0611 O.3     
   6 C6            -1.0324    -1.8571     1.0363 C.2     
   7 C7            -2.3449    -1.5458     0.8414 C.2     
   8 C8            -3.1056    -2.6190     1.3297 C.2     
   9 C9            -2.2472    -3.5482     1.8053 C.2     
  10 N10           -0.9766    -3.0947     1.6262 N.pl3   
  11 C11            3.9964     1.1036     1.1787 C.3     
  12 C12            3.5990    -0.1368     0.3723 C.3     
  13 C13            4.0751     0.0253    -1.0731 C.3     
  14 C14            5.6003     0.1497    -1.0987 C.3     
  15 C15            6.0204     1.3933    -0.3089 C.3     
  16 N16            5.4440     1.3138     1.0402 N.am    
  17 C17            6.2282     1.4311     2.1300 C.2     
  18 C18            7.6920     1.5578     1.9765 C.ar    
  19 O19            5.7309     1.4327     3.2394 O.2     
  20 C20            8.2249     2.5055     1.1007 C.ar    
  21 C21            9.5918     2.6204     0.9603 C.ar    
  22 C22           10.4377     1.7972     1.6862 C.ar    
  23 C23            9.9141     0.8521     2.5588 C.ar    
  24 C24            8.5474     0.7338     2.7113 C.ar    
  25 F25           11.7761     1.9139     1.5443 F       
  26 F26           10.7435     0.0518     3.2636 F       
  27 H27           -2.7285    -0.6406     0.3942 H       
  28 H28           -4.1833    -2.6895     1.3265 H       
  29 H29           -2.5231    -4.4932     2.2496 H       
  30 H30           -0.1668    -3.5653     1.8788 H       
  31 H31            3.4626     1.9740     0.7972 H       
  32 H32            3.7481     0.9515     2.2291 H       
  33 H33            4.0628    -1.0201     0.8112 H       
  34 H34            3.7720    -0.8451    -1.6550 H       
  35 H35            3.6303     0.9224    -1.5036 H       
  36 H36            6.0452    -0.7363    -0.6459 H       
  37 H37            5.9406     0.2416    -2.1301 H       
  38 H38            7.1075     1.4325    -0.2401 H       
  39 H39            5.6516     2.2874    -0.8117 H       
  40 H40            7.5673     3.1476     0.5335 H       
  41 H41           10.0041     3.3535     0.2828 H       
  42 H42            8.1402    -0.0009     3.3901 H       
@<TRIPOS>BOND
   1    1    2 2
   2    1    5 1
   3    2    3 1
   4    2    6 1
   5    3    4 2
   6    4    5 1
   7    4   12 1
   8    6    7 2
   9    6   10 1
  10    7    8 1
  11    7   27 1
  12    8    9 2
  13    8   28 1
  14    9   10 1
  15    9   29 1
  16   10   30 1
  17   11   12 1
  18   11   16 1
  19   11   31 1
  20   11   32 1
  21   12   13 1
  22   12   33 1
  23   13   14 1
  24   13   34 1
  25   13   35 1
  26   14   15 1
  27   14   36 1
  28   14   37 1
  29   15   16 1
  30   15   38 1
  31   15   39 1
  32   16   17 am
  33   17   18 1
  34   17   19 2
  35   18   20 ar
  36   18   24 ar
  37   20   21 ar
  38   20   40 1
  39   21   22 ar
  40   21   41 1
  41   22   23 ar
  42   22   25 1
  43   23   24 ar
  44   23   26 1
  45   24   42 1

#	End of record

