#	Name: ASD01810069
#	Creating user name:	WinNT
#	Creation time:	15. 06. 2019 19:23

#	Modifying user name:	WinNT
#	Modification time:	15. 06. 2019 19:23

#	Program:	/corina/corina34_cracker 3.40 0067  02.08.2006

@<TRIPOS>MOLECULE
ASD01810069
  44   47    0    0    0
SMALL
NO_CHARGES


@<TRIPOS>ATOM
   1 C1             1.6840     1.2010     1.8368 C.ar    
   2 C2             1.2240    -0.0059     1.3272 C.ar    
   3 C3            -0.1313    -0.2422     1.1909 C.ar    
   4 C4            -1.0520     0.7276     1.5636 C.ar    
   5 C5            -0.5870     1.9480     2.0794 C.ar    
   6 C6             0.7812     2.1792     2.2192 C.ar    
   7 N7            -2.4468     0.7361     1.5274 N.am    
   8 C8            -2.9426     1.8963     1.9911 C.2     
   9 C9            -1.7804     2.7609     2.3802 C.2     
  10 O10           -1.8145     3.8827     2.8418 O.2     
  11 O11           -4.1162     2.1907     2.0783 O.2     
  12 C12           -3.2668    -0.3778     1.0445 C.3     
  13 C13           -3.5854    -1.3013     2.1920 C.ar    
  14 C14           -4.7236    -1.0942     2.9491 C.ar    
  15 C15           -5.0177    -1.9390     4.0017 C.ar    
  16 C16           -4.1699    -2.9966     4.2986 C.ar    
  17 C17           -3.0285    -3.2025     3.5369 C.ar    
  18 C18           -2.7418    -2.3578     2.4822 C.ar    
  19 O19           -4.4567    -3.8288     5.3338 O.3     
  20 C20           -5.6373    -3.6553     5.9837 C.ar    
  21 C21           -6.7775    -4.3103     5.5404 C.ar    
  22 C22           -7.9765    -4.1321     6.2028 C.ar    
  23 C23           -8.0411    -3.3019     7.3067 C.ar    
  24 C24           -6.9066    -2.6476     7.7501 C.ar    
  25 C25           -5.7038    -2.8272     7.0951 C.ar    
  26 O26            3.0200     1.4202     1.9655 O.3     
  27 C27            3.8929     0.3652     1.5569 C.3     
  28 F28            3.6864     0.0878     0.2013 F       
  29 F29            5.2215     0.7557     1.7559 F       
  30 F30            3.6254    -0.7808     2.3134 F       
  31 H31            1.9317    -0.7673     1.0341 H       
  32 H32           -0.4753    -1.1852     0.7923 H       
  33 H33            1.1351     3.1190     2.6167 H       
  34 H34           -4.1938     0.0100     0.6221 H       
  35 H35           -2.7195    -0.9262     0.2778 H       
  36 H36           -5.3832    -0.2709     2.7176 H       
  37 H37           -5.9065    -1.7763     4.5933 H       
  38 H38           -2.3670    -4.0249     3.7659 H       
  39 H39           -1.8538    -2.5179     1.8888 H       
  40 H40           -6.7275    -4.9586     4.6781 H       
  41 H41           -8.8642    -4.6414     5.8581 H       
  42 H42           -8.9796    -3.1639     7.8232 H       
  43 H43           -6.9600    -1.9992     8.6121 H       
  44 H44           -4.8178    -2.3162     7.4420 H       
@<TRIPOS>BOND
   1    1    2 ar
   2    1   26 1
   3    1    6 ar
   4    2    3 ar
   5    2   31 1
   6    3    4 ar
   7    3   32 1
   8    4    5 ar
   9    4    7 1
  10    5    6 ar
  11    5    9 1
  12    6   33 1
  13    7    8 am
  14    7   12 1
  15    8    9 1
  16    8   11 2
  17    9   10 2
  18   12   13 1
  19   12   34 1
  20   12   35 1
  21   13   14 ar
  22   13   18 ar
  23   14   15 ar
  24   14   36 1
  25   15   16 ar
  26   15   37 1
  27   16   17 ar
  28   16   19 1
  29   17   18 ar
  30   17   38 1
  31   18   39 1
  32   19   20 1
  33   20   21 ar
  34   20   25 ar
  35   21   22 ar
  36   21   40 1
  37   22   23 ar
  38   22   41 1
  39   23   24 ar
  40   23   42 1
  41   24   25 ar
  42   24   43 1
  43   25   44 1
  44   26   27 1
  45   27   28 1
  46   27   29 1
  47   27   30 1

#	End of record

