#	Name: ASD03240270
#	Creating user name:	WinNT
#	Creation time:	15. 06. 2019 20:34

#	Modifying user name:	WinNT
#	Modification time:	15. 06. 2019 20:34

#	Program:	/corina/corina34_cracker 3.40 0067  02.08.2006

@<TRIPOS>MOLECULE
ASD03240270
 105  112    0    0    0
SMALL
NO_CHARGES


@<TRIPOS>ATOM
   1 C1            -0.1141     1.2190    -0.6112 C.2     
   2 N2            -0.0093    -0.0227    -0.0304 N.pl3   
   3 C3            -3.6697     2.2407    -0.0319 C.3     
   4 C4            -2.4756     1.2899     0.0734 C.3     
   5 N5            -1.3115     1.8939    -0.5794 N.pl3   
   6 N6             0.9231     1.7587    -1.1873 N.2     
   7 N7            -4.8339     1.6367     0.6209 N.pl3   
   8 C8            -6.0433     2.3184     0.6530 C.ar    
   9 C9            -7.1582     1.7398     1.2782 C.ar    
  10 C10           -8.3651     2.4247     1.3086 C.ar    
  11 C11           -8.4626     3.6852     0.7168 C.ar    
  12 C12           -7.3460     4.2541     0.0958 C.ar    
  13 C13           -6.1477     3.5765     0.0707 C.ar    
  14 C14           -9.7432     4.4170     0.7459 C.2     
  15 N15           -9.8371     5.6340     0.1745 N.am    
  16 O16          -10.7142     3.9220     1.2856 O.2     
  17 C17          -11.0779     6.2803     0.1030 C.ar    
  18 C18          -11.1487     7.6622     0.2211 C.ar    
  19 C19          -12.2363     5.5397    -0.0916 C.ar    
  20 C20          -13.4592     6.1766    -0.1626 C.ar    
  21 C21          -13.5307     7.5581    -0.0388 C.ar    
  22 C22          -12.3715     8.2993     0.1506 C.ar    
  23 N23          -14.7698     8.2037    -0.1111 N.pl3   
  24 C24          -14.8452     9.6609     0.0194 C.3     
  25 C25          -15.9918     7.4225    -0.3174 C.3     
  26 C26           -7.0475     0.4002     1.9044 C.ar    
  27 C27           -6.4884    -0.6637     1.1782 C.ar    
  28 C28           -6.3758    -1.9002     1.7289 C.ar    
  29 C29           -6.8218    -2.1275     3.0430 C.ar    
  30 C30           -7.3876    -1.0603     3.7859 C.ar    
  31 C31           -7.4905     0.2106     3.2004 C.ar    
  32 C32          -16.5627     7.0208     1.0182 C.ar    
  33 C33          -14.7193    10.2944    -1.3421 C.ar    
  34 C34          -17.4726     7.8454     1.6549 C.ar    
  35 C35          -17.9985     7.4825     2.8782 C.ar    
  36 C36          -17.6113     6.2829     3.4718 C.ar    
  37 C37          -16.6943     5.4560     2.8261 C.ar    
  38 C38          -16.1790     5.8261     1.6004 C.ar    
  39 C39          -15.8526    10.5344    -2.0980 C.ar    
  40 C40          -15.7431    11.1143    -3.3456 C.ar    
  41 C41          -14.4879    11.4582    -3.8434 C.ar    
  42 C42          -13.3496    11.2142    -3.0777 C.ar    
  43 C43          -13.4713    10.6390    -1.8290 C.ar    
  44 C44          -18.1730     5.8875     4.7872 C.ar    
  45 C45          -14.3639    12.0816    -5.1843 C.ar    
  46 C46          -17.7858     4.6879     5.3809 C.ar    
  47 C47          -18.3114     4.3251     6.6044 C.ar    
  48 C48          -19.2214     5.1497     7.2410 C.ar    
  49 C49          -19.6096     6.3415     6.6560 C.ar    
  50 C50          -19.0853     6.7173     5.4358 C.ar    
  51 C51          -13.1087    12.4255    -5.6821 C.ar    
  52 C52          -12.9992    13.0050    -6.9299 C.ar    
  53 C53          -14.1325    13.2450    -7.6857 C.ar    
  54 C54          -15.3810    12.9061    -7.1963 C.ar    
  55 C55          -15.5017    12.3199    -5.9525 C.ar    
  56 C56           -6.7169    -3.3975     3.6351 C.ar    
  57 C57           -7.1578    -3.5864     4.9089 C.ar    
  58 C58           -7.7139    -2.5377     5.6393 C.ar    
  59 C59           -7.8321    -1.2941     5.0996 C.ar    
  60 H60            0.8366    -0.4972    -0.0494 H       
  61 H61           -0.7811    -0.4244     0.3983 H       
  62 H62           -3.4274     3.1839     0.4576 H       
  63 H63           -3.8966     2.4241    -1.0821 H       
  64 H64           -2.2488     1.1064     1.1236 H       
  65 H65           -2.7180     0.3466    -0.4161 H       
  66 H66           -1.3854     2.7700    -0.9892 H       
  67 H67            1.7689     1.2842    -1.2063 H       
  68 H68           -4.7599     0.7606     1.0306 H       
  69 H69           -9.2263     1.9835     1.7883 H       
  70 H70           -7.4229     5.2293    -0.3620 H       
  71 H71           -5.2883     4.0203    -0.4098 H       
  72 H72           -9.0456     6.0623    -0.1872 H       
  73 H73          -10.2473     8.2384     0.3684 H       
  74 H74          -12.1807     4.4654    -0.1878 H       
  75 H75          -14.3600     5.6007    -0.3146 H       
  76 H76          -12.4270     9.3735     0.2469 H       
  77 H77          -15.8025     9.9370     0.4615 H       
  78 H78          -14.0351    10.0108     0.6593 H       
  79 H79          -16.7216     8.0254    -0.8579 H       
  80 H80          -15.7585     6.5290    -0.8963 H       
  81 H81           -6.1437    -0.4967     0.1684 H       
  82 H82           -5.9442    -2.7086     1.1575 H       
  83 H83           -7.9194     1.0323     3.7548 H       
  84 H84          -17.7718     8.7752     1.1940 H       
  85 H85          -18.7087     8.1272     3.3745 H       
  86 H86          -16.3908     4.5251     3.2818 H       
  87 H87          -15.4682     5.1860     1.0990 H       
  88 H88          -16.8249    10.2671    -1.7113 H       
  89 H89          -16.6286    11.3009    -3.9351 H       
  90 H90          -12.3744    11.4788    -3.4588 H       
  91 H91          -12.5897    10.4494    -1.2347 H       
  92 H92          -17.0759     4.0430     4.8843 H       
  93 H93          -18.0119     3.3955     7.0654 H       
  94 H94          -19.6305     4.8618     8.1981 H       
  95 H95          -20.3207     6.9815     7.1572 H       
  96 H96          -19.3889     7.6482     4.9801 H       
  97 H97          -12.2233    12.2392    -5.0925 H       
  98 H98          -12.0268    13.2720    -7.3168 H       
  99 H99          -14.0423    13.6991    -8.6615 H       
 100 H100         -16.2627    13.0960    -7.7904 H       
 101 H101         -16.4769    12.0554    -5.5714 H       
 102 H102          -6.2886    -4.2202     3.0818 H       
 103 H103          -7.0758    -4.5641     5.3605 H       
 104 H104          -8.0563    -2.7147     6.6482 H       
 105 H105          -8.2647    -0.4906     5.6773 H       
@<TRIPOS>BOND
   1    1    2 1
   2    1    6 2
   3    1    5 1
   4    2   60 1
   5    2   61 1
   6    3    4 1
   7    3    7 1
   8    3   62 1
   9    3   63 1
  10    4    5 1
  11    4   64 1
  12    4   65 1
  13    5   66 1
  14    6   67 1
  15    7    8 1
  16    7   68 1
  17    8    9 ar
  18    8   13 ar
  19    9   10 ar
  20    9   26 1
  21   10   11 ar
  22   10   69 1
  23   11   12 ar
  24   11   14 1
  25   12   13 ar
  26   12   70 1
  27   13   71 1
  28   14   15 am
  29   14   16 2
  30   15   17 1
  31   15   72 1
  32   17   18 ar
  33   17   19 ar
  34   18   22 ar
  35   18   73 1
  36   19   20 ar
  37   19   74 1
  38   20   21 ar
  39   20   75 1
  40   21   22 ar
  41   21   23 1
  42   22   76 1
  43   23   24 1
  44   23   25 1
  45   24   33 1
  46   24   77 1
  47   24   78 1
  48   25   32 1
  49   25   79 1
  50   25   80 1
  51   26   27 ar
  52   26   31 ar
  53   27   28 ar
  54   27   81 1
  55   28   29 ar
  56   28   82 1
  57   29   30 ar
  58   29   56 ar
  59   30   31 ar
  60   30   59 ar
  61   31   83 1
  62   32   34 ar
  63   32   38 ar
  64   33   39 ar
  65   33   43 ar
  66   34   35 ar
  67   34   84 1
  68   35   36 ar
  69   35   85 1
  70   36   37 ar
  71   36   44 1
  72   37   38 ar
  73   37   86 1
  74   38   87 1
  75   39   40 ar
  76   39   88 1
  77   40   41 ar
  78   40   89 1
  79   41   42 ar
  80   41   45 1
  81   42   43 ar
  82   42   90 1
  83   43   91 1
  84   44   46 ar
  85   44   50 ar
  86   45   51 ar
  87   45   55 ar
  88   46   47 ar
  89   46   92 1
  90   47   48 ar
  91   47   93 1
  92   48   49 ar
  93   48   94 1
  94   49   50 ar
  95   49   95 1
  96   50   96 1
  97   51   52 ar
  98   51   97 1
  99   52   53 ar
 100   52   98 1
 101   53   54 ar
 102   53   99 1
 103   54   55 ar
 104   54  100 1
 105   55  101 1
 106   56   57 ar
 107   56  102 1
 108   57   58 ar
 109   57  103 1
 110   58   59 ar
 111   58  104 1
 112   59  105 1

#	End of record

