#	Name: ASD01913537
#	Creating user name:	WinNT
#	Creation time:	15. 06. 2019 20:01

#	Modifying user name:	WinNT
#	Modification time:	15. 06. 2019 20:01

#	Program:	/corina/corina34_cracker 3.40 0067  02.08.2006

@<TRIPOS>MOLECULE
ASD01913537
  35   37    0    0    0
SMALL
NO_CHARGES


@<TRIPOS>ATOM
   1 C1             0.3564     0.6182     0.8314 C.ar    
   2 C2            -0.0062     0.0013    -0.3616 C.ar    
   3 C3             0.8473     0.0894    -1.4523 C.ar    
   4 N4             1.9861     0.7471    -1.3637 N.ar    
   5 C5             2.3592     1.3429    -0.2478 C.ar    
   6 C6             1.5623     1.2991     0.8807 C.ar    
   7 C7            -1.1354    -2.0343    -0.4144 C.ar    
   8 C8             0.0771    -2.7046    -0.2796 C.ar    
   9 C9             0.0845    -4.0873    -0.2335 C.ar    
  10 N10           -1.0352    -4.7737    -0.3155 N.ar    
  11 C11           -2.2145    -4.1758    -0.4448 C.ar    
  12 C12           -2.3031    -2.7889    -0.4982 C.ar    
  13 C13           -3.4463    -4.9939    -0.5330 C.2     
  14 N14           -3.3675    -6.3384    -0.4820 N.am    
  15 O15           -1.1791    -0.6783    -0.4575 O.3     
  16 C16           -4.5354    -7.1071    -0.4653 C.ar    
  17 O17           -4.5280    -4.4527    -0.6514 O.2     
  18 C18           -4.5520    -8.3603    -1.0639 C.ar    
  19 C19           -5.7068    -9.1182    -1.0465 C.ar    
  20 C20           -6.8463    -8.6314    -0.4340 C.ar    
  21 C21           -6.8343    -7.3818     0.1640 C.ar    
  22 C22           -5.6791    -6.6213     0.1548 C.ar    
  23 F23           -7.9498    -6.9082     0.7611 F       
  24 H24           -0.2882     0.5715     1.6966 H       
  25 H25            0.5758    -0.3861    -2.3832 H       
  26 H26            3.3001     1.8720    -0.2153 H       
  27 H27            1.8757     1.7902     1.7901 H       
  28 H28            1.0022    -2.1513    -0.2121 H       
  29 H29            1.0232    -4.6112    -0.1290 H       
  30 H30           -3.2626    -2.3044    -0.6033 H       
  31 H31           -2.5005    -6.7728    -0.4568 H       
  32 H32           -3.6626    -8.7418    -1.5432 H       
  33 H33           -5.7194   -10.0925    -1.5124 H       
  34 H34           -7.7477    -9.2261    -0.4218 H       
  35 H35           -5.6692    -5.6472     0.6212 H       
@<TRIPOS>BOND
   1    1    2 ar
   2    1    6 ar
   3    1   24 1
   4    2    3 ar
   5    2   15 1
   6    3    4 ar
   7    3   25 1
   8    4    5 ar
   9    5    6 ar
  10    5   26 1
  11    6   27 1
  12    7    8 ar
  13    7   12 ar
  14    7   15 1
  15    8    9 ar
  16    8   28 1
  17    9   10 ar
  18    9   29 1
  19   10   11 ar
  20   11   12 ar
  21   11   13 1
  22   12   30 1
  23   13   14 am
  24   13   17 2
  25   14   16 1
  26   14   31 1
  27   16   18 ar
  28   16   22 ar
  29   18   19 ar
  30   18   32 1
  31   19   20 ar
  32   19   33 1
  33   20   21 ar
  34   20   34 1
  35   21   22 ar
  36   21   23 1
  37   22   35 1

#	End of record

