#	Name: ASD05842023
#	Creating user name:	WinNT
#	Creation time:	15. 06. 2019 21:03

#	Modifying user name:	WinNT
#	Modification time:	15. 06. 2019 21:03

#	Program:	/corina/corina34_cracker 3.40 0067  02.08.2006

@<TRIPOS>MOLECULE
ASD05842023
  39   40    0    0    0
SMALL
NO_CHARGES


@<TRIPOS>ATOM
   1 C1            -0.1084     1.3081    -0.0168 C.ar    
   2 C2            -0.0538    -0.0731    -0.0226 C.ar    
   3 C3            -1.2228    -0.8110    -0.0194 C.ar    
   4 C4            -2.4462    -0.1677    -0.0100 C.ar    
   5 C5            -2.5008     1.2136    -0.0032 C.ar    
   6 C6            -1.3318     1.9515    -0.0020 C.ar    
   7 C7             1.1660     2.1126    -0.0203 C.3     
   8 N8             1.5727     2.3795    -1.4064 N.3     
   9 C9             2.6705     3.3544    -1.4544 C.3     
  10 C10            2.1169     4.7586    -1.2040 C.3     
  11 C11            3.2557     5.7435    -1.1396 C.ar    
  12 C12            3.6920     6.3719    -2.2910 C.ar    
  13 C13            4.7366     7.2752    -2.2319 C.ar    
  14 C14            5.3447     7.5506    -1.0214 C.ar    
  15 C15            4.9078     6.9228     0.1301 C.ar    
  16 C16            3.8603     6.0227     0.0717 C.ar    
  17 C17            1.9669     1.3739    -3.5831 C.2     
  18 C18            1.9426     1.1358    -2.0953 C.3     
  19 O19            1.7636     2.4814    -4.0212 O.2     
  20 O20            2.2146     0.3555    -4.4218 O.3     
  21 H21            0.9020    -0.5758    -0.0300 H       
  22 H22           -1.1801    -1.8902    -0.0247 H       
  23 H23           -3.3595    -0.7442    -0.0082 H       
  24 H24           -3.4566     1.7162     0.0038 H       
  25 H25           -1.3744     3.0306     0.0033 H       
  26 H26            1.0009     3.0570     0.4982 H       
  27 H27            1.9510     1.5519     0.4872 H       
  28 H28            3.4059     3.1117    -0.6873 H       
  29 H29            3.1441     3.3202    -2.4356 H       
  30 H30            1.4439     5.0339    -2.0160 H       
  31 H31            1.5718     4.7712    -0.2602 H       
  32 H32            3.2169     6.1567    -3.2367 H       
  33 H33            5.0780     7.7656    -3.1316 H       
  34 H34            6.1613     8.2558    -0.9754 H       
  35 H35            5.3831     7.1377     1.0758 H       
  36 H36            3.5190     5.5323     0.9714 H       
  37 H37            2.9299     0.8159    -1.7623 H       
  38 H38            1.2121     0.3609    -1.8632 H       
  39 H39            2.2199     0.5570    -5.3675 H       
@<TRIPOS>BOND
   1    1    2 ar
   2    1    7 1
   3    1    6 ar
   4    2    3 ar
   5    2   21 1
   6    3    4 ar
   7    3   22 1
   8    4    5 ar
   9    4   23 1
  10    5    6 ar
  11    5   24 1
  12    6   25 1
  13    7    8 1
  14    7   26 1
  15    7   27 1
  16    8    9 1
  17    8   18 1
  18    9   10 1
  19    9   28 1
  20    9   29 1
  21   10   11 1
  22   10   30 1
  23   10   31 1
  24   11   12 ar
  25   11   16 ar
  26   12   13 ar
  27   12   32 1
  28   13   14 ar
  29   13   33 1
  30   14   15 ar
  31   14   34 1
  32   15   16 ar
  33   15   35 1
  34   16   36 1
  35   17   18 1
  36   17   19 2
  37   17   20 1
  38   18   37 1
  39   18   38 1
  40   20   39 1

#	End of record

