#	Name: ASD02690066
#	Creating user name:	WinNT
#	Creation time:	15. 06. 2019 20:26

#	Modifying user name:	WinNT
#	Modification time:	15. 06. 2019 20:26

#	Program:	/corina/corina34_cracker 3.40 0067  02.08.2006

@<TRIPOS>MOLECULE
ASD02690066
  59   61    0    0    0
SMALL
NO_CHARGES


@<TRIPOS>ATOM
   1 C1            -0.0321     1.1768    -0.0402 C.2     
   2 O2            -0.0088    -0.0338     0.0235 O.2     
   3 C3             1.2147     3.3301    -0.1976 C.ar    
   4 C4             1.2272     1.9337    -0.1238 C.ar    
   5 C5             2.4614     1.2672    -0.1303 C.ar    
   6 C6             3.6152     2.0260    -0.2100 C.ar    
   7 C7             3.5165     3.4043    -0.2799 C.ar    
   8 N8             2.3417     4.0058    -0.2719 N.ar    
   9 N9            -4.0827     2.0909     0.8777 N.3     
  10 C10           -3.7948     1.7041    -0.5093 C.3     
  11 C11           -2.4485     0.9789    -0.5691 C.3     
  12 C12           -1.3509     1.9061    -0.0398 C.3     
  13 C13           -1.6992     2.3329     1.3888 C.3     
  14 C14           -3.0673     3.0188     1.3918 C.3     
  15 C15           -6.4480     1.7266     0.3532 C.3     
  16 C16           -5.4292     2.6662     0.9951 C.3     
  17 C17           -5.7921     2.8335     2.4754 C.3     
  18 C18           -7.0816     3.6471     2.5660 C.3     
  19 C19           -8.1434     3.0583     1.6741 C.ar    
  20 C20           -9.4619     3.4317     1.9055 C.ar    
  21 C21          -10.4830     2.9334     1.1228 C.ar    
  22 C22          -10.1965     2.0540     0.0968 C.ar    
  23 C23           -8.8835     1.6767    -0.1374 C.ar    
  24 C24           -7.8518     2.1803     0.6566 C.ar    
  25 O25           -5.9903     1.5496     3.0706 O.3     
  26 N26           -8.5910     0.7870    -1.1736 N.pl3   
  27 H27            0.2725     3.8580    -0.1982 H       
  28 H28            2.5095     0.1897    -0.0743 H       
  29 H29            4.5833     1.5475    -0.2171 H       
  30 H30            4.4163     3.9982    -0.3418 H       
  31 H31           -4.5806     1.0416    -0.8722 H       
  32 H32           -3.7548     2.5962    -1.1343 H       
  33 H33           -2.4922     0.0792     0.0447 H       
  34 H34           -2.2278     0.7057    -1.6010 H       
  35 H35           -1.2799     2.7875    -0.6772 H       
  36 H36           -1.7311     1.4545     2.0335 H       
  37 H37           -0.9433     3.0271     1.7558 H       
  38 H38           -3.0307     3.9048     0.7579 H       
  39 H39           -3.3247     3.3112     2.4099 H       
  40 H40           -6.2985     1.7179    -0.7265 H       
  41 H41           -6.3035     0.7192     0.7435 H       
  42 H42           -5.4590     3.6355     0.4974 H       
  43 H43           -4.9895     3.3588     2.9932 H       
  44 H44           -7.4362     3.6450     3.5966 H       
  45 H45           -6.8815     4.6732     2.2574 H       
  46 H46           -9.6897     4.1190     2.7068 H       
  47 H47          -11.5041     3.2299     1.3121 H       
  48 H48          -10.9919     1.6620    -0.5198 H       
  49 H49           -6.2231     1.5825     4.0085 H       
  50 H50           -9.3058     0.4351    -1.7269 H       
  51 H51           -7.6731     0.5211    -1.3400 H       
  52 C52           10.7575    12.7903     9.0363 C.2     
  53 C53           10.7778    11.2963     9.0281 C.2     
  54 O54           11.7992    13.4108     9.0297 O.2     
  55 O55            9.5833    13.4472     9.0455 O.3     
  56 O56            9.7361    10.6758     9.0347 O.2     
  57 O57           11.9520    10.6395     9.0134 O.3     
  58 H58            9.6208    14.4134     9.0505 H       
  59 H59           11.9144     9.6732     9.0085 H       
@<TRIPOS>BOND
   1    1    2 2
   2    1    4 1
   3    1   12 1
   4    3    4 ar
   5    3    8 ar
   6    3   27 1
   7    4    5 ar
   8    5    6 ar
   9    5   28 1
  10    6    7 ar
  11    6   29 1
  12    7    8 ar
  13    7   30 1
  14    9   10 1
  15    9   14 1
  16    9   16 1
  17   10   11 1
  18   10   31 1
  19   10   32 1
  20   11   12 1
  21   11   33 1
  22   11   34 1
  23   12   13 1
  24   12   35 1
  25   13   14 1
  26   13   36 1
  27   13   37 1
  28   14   38 1
  29   14   39 1
  30   15   16 1
  31   15   24 1
  32   15   40 1
  33   15   41 1
  34   16   17 1
  35   16   42 1
  36   17   18 1
  37   17   25 1
  38   17   43 1
  39   18   19 1
  40   18   44 1
  41   18   45 1
  42   19   20 ar
  43   19   24 ar
  44   20   21 ar
  45   20   46 1
  46   21   22 ar
  47   21   47 1
  48   22   23 ar
  49   22   48 1
  50   23   24 ar
  51   23   26 1
  52   25   49 1
  53   26   50 1
  54   26   51 1
  55   52   53 1
  56   52   54 2
  57   52   55 1
  58   53   56 2
  59   53   57 1
  60   55   58 1
  61   57   59 1

#	End of record

