#	Name: ASD01230010
#	Creating user name:	WinNT
#	Creation time:	15. 06. 2019 19:11

#	Modifying user name:	WinNT
#	Modification time:	15. 06. 2019 19:11

#	Program:	/corina/corina34_cracker 3.40 0067  02.08.2006

@<TRIPOS>MOLECULE
ASD01230010
  54   56    0    0    0
SMALL
NO_CHARGES


@<TRIPOS>ATOM
   1 C1            -0.0187     1.5258     0.0104 C.3     
   2 C2             0.0021    -0.0041     0.0020 C.3     
   3 C3            -1.4333    -0.5336     0.0129 C.3     
   4 S4             0.8511    -0.5891    -1.4904 S.o2    
   5 O5             1.0544    -1.9942    -1.4301 O.2     
   6 O6             0.3011     0.0225    -2.6492 O.2     
   7 N7             2.3749     0.0492    -1.3760 N.am    
   8 C8             4.2206    -1.4886    -0.7731 C.3     
   9 C9             3.2670    -0.3739    -0.2937 C.3     
  10 C10            4.2446     0.7584     0.0857 C.3     
  11 C11            5.5396     0.0605     0.4434 C.ar    
  12 C12            6.6395     0.5209     1.1440 C.ar    
  13 C13            7.7337    -0.3136     1.3535 C.ar    
  14 C14            7.7149    -1.6144     0.8541 C.ar    
  15 C15            6.6142    -2.0651     0.1569 C.ar    
  16 C16            5.5260    -1.2317    -0.0502 C.ar    
  17 C17            8.9146     0.1797     2.1045 C.ar    
  18 C18            8.9327     1.4809     2.6032 C.ar    
  19 C19           10.0333     1.9343     3.3014 C.ar    
  20 C20           11.1176     1.0999     3.5062 C.ar    
  21 C21           11.1050    -0.1923     3.0135 C.ar    
  22 C22           10.0069    -0.6581     2.3187 C.ar    
  23 S23           12.4903    -1.2482     3.2791 S.o2    
  24 O24           12.4494    -2.2298     2.2524 O.2     
  25 O25           13.6074    -0.3974     3.4968 O.2     
  26 N26           12.2290    -2.0507     4.7039 N.am    
  27 C27           11.5256    -3.3358     4.7024 C.3     
  28 C28           12.7013    -1.4756     5.9658 C.3     
  29 H29            1.0039     1.9031     0.0027 H       
  30 H30           -0.5459     1.8868    -0.8726 H       
  31 H31           -0.5289     1.8773     0.9072 H       
  32 H32            0.5293    -0.3651     0.8851 H       
  33 H33           -1.9605    -0.1726    -0.8702 H       
  34 H34           -1.4185    -1.6235     0.0069 H       
  35 H35           -1.9435    -0.1821     0.9097 H       
  36 H36            2.6768     0.7033    -2.0256 H       
  37 H37            3.8247    -2.4674    -0.5023 H       
  38 H38            4.3663    -1.4239    -1.8514 H       
  39 H39            2.6933    -0.7012     0.5734 H       
  40 H40            4.3968     1.4265    -0.7620 H       
  41 H41            3.8652     1.3143     0.9430 H       
  42 H42            6.6497     1.5300     1.5289 H       
  43 H43            8.5603    -2.2676     1.0124 H       
  44 H44            6.5996    -3.0733    -0.2301 H       
  45 H45            8.0870     2.1333     2.4432 H       
  46 H46           10.0483     2.9425     3.6882 H       
  47 H47           11.9772     1.4590     4.0525 H       
  48 H48            9.9964    -1.6687     1.9380 H       
  49 H49           12.0784    -4.0519     4.0944 H       
  50 H50           11.4488    -3.7091     5.7236 H       
  51 H51           10.5262    -3.2025     4.2882 H       
  52 H52           11.9222    -0.8426     6.3906 H       
  53 H53           12.9387    -2.2779     6.6644 H       
  54 H54           13.5943    -0.8784     5.7812 H       
@<TRIPOS>BOND
   1    1    2 1
   2    1   29 1
   3    1   30 1
   4    1   31 1
   5    2    3 1
   6    2    4 1
   7    2   32 1
   8    3   33 1
   9    3   34 1
  10    3   35 1
  11    4    5 2
  12    4    6 2
  13    4    7 am
  14    7    9 1
  15    7   36 1
  16    8    9 1
  17    8   16 1
  18    8   37 1
  19    8   38 1
  20    9   10 1
  21    9   39 1
  22   10   11 1
  23   10   40 1
  24   10   41 1
  25   11   12 ar
  26   11   16 ar
  27   12   13 ar
  28   12   42 1
  29   13   14 ar
  30   13   17 1
  31   14   15 ar
  32   14   43 1
  33   15   16 ar
  34   15   44 1
  35   17   18 ar
  36   17   22 ar
  37   18   19 ar
  38   18   45 1
  39   19   20 ar
  40   19   46 1
  41   20   21 ar
  42   20   47 1
  43   21   22 ar
  44   21   23 1
  45   22   48 1
  46   23   24 2
  47   23   25 2
  48   23   26 am
  49   26   27 1
  50   26   28 1
  51   27   49 1
  52   27   50 1
  53   27   51 1
  54   28   52 1
  55   28   53 1
  56   28   54 1

#	End of record

