#	Name: ASD01810668
#	Creating user name:	WinNT
#	Creation time:	15. 06. 2019 19:25

#	Modifying user name:	WinNT
#	Modification time:	15. 06. 2019 19:25

#	Program:	/corina/corina34_cracker 3.40 0067  02.08.2006

@<TRIPOS>MOLECULE
ASD01810668
  39   41    0    0    0
SMALL
NO_CHARGES


@<TRIPOS>ATOM
   1 N1            -0.0147     1.2902    -0.1150 N.pl3   
   2 N2             0.0047     0.0243    -0.3031 N.2     
   3 C3             1.1024    -0.6858    -0.4438 C.2     
   4 C4             2.4124    -0.0100    -0.3861 C.2     
   5 C5             2.3827     1.4483    -0.1692 C.ar    
   6 C6             3.5457     2.2100    -0.0936 C.ar    
   7 C7             3.4561     3.5599     0.1096 C.ar    
   8 C8             2.2171     4.1722     0.2408 C.ar    
   9 C9             1.0537     3.4359     0.1694 C.ar    
  10 C10            1.1207     2.0594    -0.0378 C.ar    
  11 C11            1.0248    -2.1415    -0.6563 C.2     
  12 O12            2.0432    -2.7918    -0.7856 O.2     
  13 O13           -0.1757    -2.7520    -0.7074 O.3     
  14 O14            3.4589    -0.6218    -0.5101 O.2     
  15 C15           -1.3141     1.9534     0.0188 C.3     
  16 C16           -2.4148     0.9315    -0.1055 C.ar    
  17 C17           -2.8908     0.2881     1.0216 C.ar    
  18 C18           -3.9000    -0.6495     0.9079 C.ar    
  19 C19           -4.4338    -0.9436    -0.3335 C.ar    
  20 C20           -3.9576    -0.2995    -1.4608 C.ar    
  21 C21           -2.9520     0.6419    -1.3458 C.ar    
  22 I22           -5.9629    -2.3652    -0.5065 I       
  23 Cl23          -0.4864     4.2192     0.3369 Cl      
  24 C24           -0.1762    -4.1884    -0.9196 C.3     
  25 C25           -1.6181    -4.6992    -0.9481 C.3     
  26 H26            4.5120     1.7384    -0.1942 H       
  27 H27            4.3562     4.1538     0.1688 H       
  28 H28            2.1639     5.2389     0.4011 H       
  29 H29           -1.3763     2.4376     0.9933 H       
  30 H30           -1.4227     2.7017    -0.7663 H       
  31 H31           -2.4740     0.5178     1.9911 H       
  32 H32           -4.2715    -1.1527     1.7884 H       
  33 H33           -4.3740    -0.5292    -2.4305 H       
  34 H34           -2.5829     1.1479    -2.2257 H       
  35 H35            0.3086    -4.4156    -1.8691 H       
  36 H36            0.3659    -4.6756    -0.1092 H       
  37 H37           -1.6185    -5.7775    -1.1075 H       
  38 H38           -2.1029    -4.4720     0.0013 H       
  39 H39           -2.1602    -4.2120    -1.7586 H       
@<TRIPOS>BOND
   1    1    2 1
   2    1   10 1
   3    1   15 1
   4    2    3 2
   5    3    4 1
   6    3   11 1
   7    4    5 1
   8    4   14 2
   9    5    6 ar
  10    5   10 ar
  11    6    7 ar
  12    6   26 1
  13    7    8 ar
  14    7   27 1
  15    8    9 ar
  16    8   28 1
  17    9   10 ar
  18    9   23 1
  19   11   12 2
  20   11   13 1
  21   13   24 1
  22   15   16 1
  23   15   29 1
  24   15   30 1
  25   16   17 ar
  26   16   21 ar
  27   17   18 ar
  28   17   31 1
  29   18   19 ar
  30   18   32 1
  31   19   20 ar
  32   19   22 1
  33   20   21 ar
  34   20   33 1
  35   21   34 1
  36   24   25 1
  37   24   35 1
  38   24   36 1
  39   25   37 1
  40   25   38 1
  41   25   39 1

#	End of record

