#	Name: ASD03091145
#	Creating user name:	WinNT
#	Creation time:	15. 06. 2019 20:30

#	Modifying user name:	WinNT
#	Modification time:	15. 06. 2019 20:30

#	Program:	/corina/corina34_cracker 3.40 0067  02.08.2006

@<TRIPOS>MOLECULE
ASD03091145
  31   33    0    0    0
SMALL
NO_CHARGES


@<TRIPOS>ATOM
   1 C1            -0.0293     1.3164     0.0249 C.2     
   2 N2             0.0203    -0.0147    -0.1779 N.am    
   3 C3             1.2083    -0.7033    -0.2238 C.2     
   4 C4             2.4059    -0.0855    -0.0675 C.2     
   5 C5             2.4439     1.3574     0.1571 C.ar    
   6 C6             3.6480     2.0464     0.3242 C.ar    
   7 C7             3.6310     3.3969     0.5313 C.ar    
   8 C8             2.4306     4.0965     0.5786 C.ar    
   9 C9             1.2276     3.4434     0.4171 C.ar    
  10 C10            1.2193     2.0650     0.2040 C.ar    
  11 O11           -1.1012     1.8938     0.0544 O.2     
  12 C12           -1.2334    -0.7519    -0.3550 C.3     
  13 C13            1.1806    -2.1639    -0.4501 C.ar    
  14 C14            1.9283    -2.7269    -1.4856 C.ar    
  15 C15            1.8983    -4.0918    -1.6911 C.ar    
  16 C16            1.1281    -4.9010    -0.8725 C.ar    
  17 C17            0.3853    -4.3483     0.1550 C.ar    
  18 C18            0.4113    -2.9863     0.3744 C.ar    
  19 Cl19           2.8271    -4.7948    -2.9782 Cl      
  20 Br20           2.4484     5.9651     0.8684 Br      
  21 H21            3.3226    -0.6551    -0.1084 H       
  22 H22            4.5871     1.5142     0.2902 H       
  23 H23            4.5626     3.9278     0.6602 H       
  24 H24            0.2994     3.9942     0.4556 H       
  25 H25           -2.0667    -0.0498    -0.3839 H       
  26 H26           -1.1970    -1.3114    -1.2897 H       
  27 H27           -1.3692    -1.4428     0.4770 H       
  28 H28            2.5285    -2.0964    -2.1247 H       
  29 H29            1.1071    -5.9682    -1.0375 H       
  30 H30           -0.2133    -4.9849     0.7898 H       
  31 H31           -0.1660    -2.5569     1.1798 H       
@<TRIPOS>BOND
   1    1    2 am
   2    1   10 1
   3    1   11 2
   4    2    3 1
   5    2   12 1
   6    3    4 2
   7    3   13 1
   8    4    5 1
   9    4   21 1
  10    5    6 ar
  11    5   10 ar
  12    6    7 ar
  13    6   22 1
  14    7    8 ar
  15    7   23 1
  16    8    9 ar
  17    8   20 1
  18    9   10 ar
  19    9   24 1
  20   12   25 1
  21   12   26 1
  22   12   27 1
  23   13   14 ar
  24   13   18 ar
  25   14   15 ar
  26   14   28 1
  27   15   16 ar
  28   15   19 1
  29   16   17 ar
  30   16   29 1
  31   17   18 ar
  32   17   30 1
  33   18   31 1

#	End of record

