#	Name: ASD02320008
#	Creating user name:	WinNT
#	Creation time:	15. 06. 2019 20:20

#	Modifying user name:	WinNT
#	Modification time:	15. 06. 2019 20:20

#	Program:	/corina/corina34_cracker 3.40 0067  02.08.2006

@<TRIPOS>MOLECULE
ASD02320008
  43   44    0    0    0
SMALL
NO_CHARGES


@<TRIPOS>ATOM
   1 C1            -0.0168     1.3862     0.0097 C.ar    
   2 C2             0.0021    -0.0041     0.0020 C.ar    
   3 C3             1.2127    -0.6878    -0.0133 C.ar    
   4 C4             2.3995     0.0093    -0.0209 C.ar    
   5 C5             2.3862     1.4094    -0.0132 C.ar    
   6 C6             1.1643     2.0930     0.0022 C.ar    
   7 C7             3.6345     3.5100    -0.0135 C.2     
   8 C8             3.6501     2.1587    -0.0209 C.2     
   9 C9             3.6578     6.4176     0.0020 C.ar    
  10 C10            4.8750     5.7297    -0.0129 C.ar    
  11 C11            4.8920     4.2555    -0.0210 C.2     
  12 C12            3.6461     7.7934     0.0090 C.ar    
  13 C13            4.8423     8.5045     0.0009 C.ar    
  14 C14            6.0558     7.8319    -0.0134 C.ar    
  15 C15            6.0808     6.4484    -0.0206 C.ar    
  16 O16            5.9538     3.6587    -0.0340 O.2     
  17 O17            7.2664     5.7889    -0.0347 O.3     
  18 S18            7.8198     5.4810     1.3493 S.o2    
  19 O19            9.1354     4.9809     1.1532 O.2     
  20 O20            7.5313     6.6133     2.1579 O.2     
  21 O21            7.0021     4.3290     1.9155 O.3     
  22 Na22           7.4366     2.5587     1.1171 Du      
  23 O23           -1.1654    -0.6963     0.0099 O.3     
  24 S24           -1.7118    -1.0045    -1.3768 S.o2    
  25 O25           -3.0129    -1.5426    -1.1849 O.2     
  26 O26           -1.4554     0.1439    -2.1735 O.2     
  27 O27           -0.8633    -2.1275    -1.9559 O.3     
  28 Na28          -1.2482    -3.9175    -1.1761 Du      
  29 O29            4.8218     9.8615     0.0075 O.3     
  30 S30            4.8258    10.4740     1.4008 S.o2    
  31 O31            4.6006    11.8663     1.2278 O.2     
  32 O32            3.9965     9.6466     2.2052 O.2     
  33 O33            6.2377    10.3321     1.9513 O.3     
  34 Na34           7.5469    11.6043     1.1591 Du      
  35 H35           -0.9599     1.9124     0.0170 H       
  36 H36            1.2218    -1.7677    -0.0188 H       
  37 H37            3.3393    -0.5227    -0.0324 H       
  38 H38            1.1486     3.1728     0.0078 H       
  39 H39            2.6931     4.0391    -0.0019 H       
  40 H40            4.5915     1.6296    -0.0324 H       
  41 H41            2.7273     5.8694     0.0035 H       
  42 H42            2.7052     8.3234     0.0205 H       
  43 H43            6.9813     8.3885    -0.0204 H       
@<TRIPOS>BOND
   1    1    2 ar
   2    1    6 ar
   3    1   35 1
   4    2    3 ar
   5    2   23 1
   6    3    4 ar
   7    3   36 1
   8    4    5 ar
   9    4   37 1
  10    5    6 ar
  11    5    8 1
  12    6   38 1
  13    7    8 2
  14    7   11 1
  15    7   39 1
  16    8   40 1
  17    9   10 ar
  18    9   12 ar
  19    9   41 1
  20   10   11 1
  21   10   15 ar
  22   11   16 2
  23   12   13 ar
  24   12   42 1
  25   13   14 ar
  26   13   29 1
  27   14   15 ar
  28   14   43 1
  29   15   17 1
  30   17   18 1
  31   18   19 2
  32   18   20 2
  33   18   21 1
  34   21   22 1
  35   23   24 1
  36   24   25 2
  37   24   26 2
  38   24   27 1
  39   27   28 1
  40   29   30 1
  41   30   31 2
  42   30   32 2
  43   30   33 1
  44   33   34 1

#	End of record

