#	Name: ASD01209193
#	Creating user name:	WinNT
#	Creation time:	15. 06. 2019 19:11

#	Modifying user name:	WinNT
#	Modification time:	15. 06. 2019 19:11

#	Program:	/corina/corina34_cracker 3.40 0067  02.08.2006

@<TRIPOS>MOLECULE
ASD01209193
  71   73    0    0    0
SMALL
NO_CHARGES


@<TRIPOS>ATOM
   1 O1             0.6931     0.0083    -0.6006 O.3     
   2 O2             2.7800     0.7888     0.7951 O.3     
   3 C3             2.3560     5.9820    -8.6833 C.ar    
   4 C4             1.4906     6.1565    -9.7533 C.ar    
   5 C5             0.1568     5.7916    -9.6388 C.ar    
   6 C6            -0.3159     5.2504    -8.4550 C.ar    
   7 C7             0.5512     5.0731    -7.3760 C.ar    
   8 C8             1.8927     5.4365    -7.4972 C.ar    
   9 O9            -0.6869     5.9656   -10.6900 O.3     
  10 C10            0.0509     4.4967    -6.1100 C.2     
  11 N11            0.8899     4.3264    -5.0691 N.am    
  12 O12           -1.1173     4.1765    -6.0078 O.2     
  13 C13            0.4198     3.7848    -3.8796 C.2     
  14 P14            1.9086     1.0617    -0.5309 P.3     
  15 O15            2.7669     0.9044    -1.7263 O.2     
  16 C16            1.2411     2.7574    -0.4810 C.3     
  17 N17            1.1401     3.5794    -2.8214 N.2     
  18 S18           -1.1945     3.2989    -3.5953 S.3     
  19 C19           -0.7695     2.8078    -1.9577 C.2     
  20 C20            0.5291     3.0552    -1.7754 C.2     
  21 C21            0.8904    -1.3986    -0.7550 C.3     
  22 C22           -0.4671    -2.1038    -0.7833 C.3     
  23 C23            3.5219    -0.4144     1.0049 C.3     
  24 C24            4.2312    -0.3466     2.3589 C.3     
  25 O25            3.6613     6.3416    -8.8006 O.3     
  26 C26            4.4696     6.2424    -7.6264 C.3     
  27 C27            5.0033     4.8147    -7.4937 C.3     
  28 C28            5.6436     7.2180    -7.7314 C.3     
  29 C29           -0.1630     6.6353   -11.8385 C.3     
  30 C30            0.5624     5.6387   -12.7808 C.3     
  31 C31            0.4370     6.3154   -14.1621 C.3     
  32 N32           -0.7041     7.2400   -14.0932 N.am    
  33 C33           -1.3048     7.1503   -12.7499 C.3     
  34 S34           -1.2271     8.2206   -15.3209 S.o2    
  35 O35           -1.8706     9.2999   -14.6573 O.2     
  36 O36           -0.0689     8.4353   -16.1156 O.2     
  37 C37           -2.4384     7.2132   -16.2201 C.3     
  38 H38            1.8561     6.5780   -10.6781 H       
  39 H39           -1.3543     4.9669    -8.3666 H       
  40 H40            2.5671     5.3010    -6.6646 H       
  41 H41            1.8221     4.5819    -5.1507 H       
  42 H42            0.5398     2.8475     0.3485 H       
  43 H43            2.0583     3.4657    -0.3445 H       
  44 H44           -1.4431     2.3840    -1.2276 H       
  45 H45            1.4193    -1.5910    -1.6884 H       
  46 H46            1.4790    -1.7768     0.0808 H       
  47 H47           -0.9961    -1.9114     0.1501 H       
  48 H48           -1.0557    -1.7256    -1.6191 H       
  49 H49           -0.3167    -3.1769    -0.9010 H       
  50 H50            2.8426    -1.2668     0.9928 H       
  51 H51            4.2616    -0.5280     0.2125 H       
  52 H52            3.4915    -0.2330     3.1513 H       
  53 H53            4.7971    -1.2644     2.5189 H       
  54 H54            4.9104     0.5058     2.3709 H       
  55 H55            3.8696     6.4889    -6.7504 H       
  56 H56            5.6199     4.7390    -6.5980 H       
  57 H57            4.1670     4.1196    -7.4189 H       
  58 H58            5.6033     4.5682    -8.3697 H       
  59 H59            5.2634     8.2351    -7.8260 H       
  60 H60            6.2601     7.1423    -6.8358 H       
  61 H61            6.2436     6.9715    -8.6074 H       
  62 H62            0.5004     7.4489   -11.5449 H       
  63 H63            1.6094     5.5323   -12.4972 H       
  64 H64            0.0608     4.6710   -12.7785 H       
  65 H65            1.3488     6.8681   -14.3883 H       
  66 H66            0.2578     5.5619   -14.9291 H       
  67 H67           -2.1357     6.4448   -12.7523 H       
  68 H68           -1.6411     8.1327   -12.4184 H       
  69 H69           -3.2500     6.9347   -15.5479 H       
  70 H70           -2.8394     7.7870   -17.0557 H       
  71 H71           -1.9536     6.3127   -16.5971 H       
@<TRIPOS>BOND
   1    1   21 1
   2    1   14 1
   3    2   23 1
   4    2   14 1
   5    3    4 ar
   6    3   25 1
   7    3    8 ar
   8    4    5 ar
   9    4   38 1
  10    5    6 ar
  11    5    9 1
  12    6    7 ar
  13    6   39 1
  14    7    8 ar
  15    7   10 1
  16    8   40 1
  17    9   29 1
  18   10   11 am
  19   10   12 2
  20   11   13 1
  21   11   41 1
  22   13   17 2
  23   13   18 1
  24   14   15 2
  25   14   16 1
  26   16   20 1
  27   16   42 1
  28   16   43 1
  29   17   20 1
  30   18   19 1
  31   19   20 2
  32   19   44 1
  33   21   22 1
  34   21   45 1
  35   21   46 1
  36   22   47 1
  37   22   48 1
  38   22   49 1
  39   23   24 1
  40   23   50 1
  41   23   51 1
  42   24   52 1
  43   24   53 1
  44   24   54 1
  45   25   26 1
  46   26   27 1
  47   26   28 1
  48   26   55 1
  49   27   56 1
  50   27   57 1
  51   27   58 1
  52   28   59 1
  53   28   60 1
  54   28   61 1
  55   29   30 1
  56   29   33 1
  57   29   62 1
  58   30   31 1
  59   30   63 1
  60   30   64 1
  61   31   32 1
  62   31   65 1
  63   31   66 1
  64   32   33 1
  65   32   34 am
  66   33   67 1
  67   33   68 1
  68   34   35 2
  69   34   36 2
  70   34   37 1
  71   37   69 1
  72   37   70 1
  73   37   71 1

#	End of record

