#	Name: ASD07300415
#	Creating user name:	WinNT
#	Creation time:	15. 06. 2019 21:09

#	Modifying user name:	WinNT
#	Modification time:	15. 06. 2019 21:09

#	Program:	/corina/corina34_cracker 3.40 0067  02.08.2006

@<TRIPOS>MOLECULE
ASD07300415
  18   19    0    0    0
SMALL
NO_CHARGES


@<TRIPOS>ATOM
   1 C1            -0.0170     1.4023     0.0098 C.ar    
   2 C2             0.0021    -0.0041     0.0020 C.ar    
   3 C3             1.2336    -0.6643    -0.0129 C.ar    
   4 C4             2.3852     0.1018    -0.0194 C.ar    
   5 C5             2.2863     1.4830    -0.0110 C.ar    
   6 N6             1.1145     2.0864     0.0026 N.ar    
   7 C7            -2.0872     0.6130     0.0340 C.2     
   8 N8            -1.3507     1.7648     0.0300 N.pl3   
   9 N9            -1.2883    -0.4258     0.0121 N.2     
  10 S10           -3.8473     0.5365     0.0586 S.3     
  11 C11           -4.0841    -1.2579     0.0519 C.3     
  12 H12            1.2849    -1.7431    -0.0188 H       
  13 H13            3.3548    -0.3738    -0.0305 H       
  14 H14            3.1877     2.0779    -0.0158 H       
  15 H15           -1.6998     2.6698     0.0399 H       
  16 H16           -3.6349    -1.6803    -0.8470 H       
  17 H17           -3.6096    -1.6903     0.9327 H       
  18 H18           -5.1503    -1.4838     0.0658 H       
@<TRIPOS>BOND
   1    1    2 ar
   2    1    6 ar
   3    1    8 1
   4    2    3 ar
   5    2    9 1
   6    3    4 ar
   7    3   12 1
   8    4    5 ar
   9    4   13 1
  10    5    6 ar
  11    5   14 1
  12    7    8 1
  13    7    9 2
  14    7   10 1
  15    8   15 1
  16   10   11 1
  17   11   16 1
  18   11   17 1
  19   11   18 1

#	End of record

