#	Name: ASD05313065
#	Creating user name:	WinNT
#	Creation time:	15. 06. 2019 20:58

#	Modifying user name:	WinNT
#	Modification time:	15. 06. 2019 20:58

#	Program:	/corina/corina34_cracker 3.40 0067  02.08.2006

@<TRIPOS>MOLECULE
ASD05313065
  37   40    0    0    0
SMALL
NO_CHARGES


@<TRIPOS>ATOM
   1 C1            -0.0720     0.8171     1.0250 C.2     
   2 C2             0.1140    -0.6192     0.5972 C.3     
   3 N3             0.9291     1.7298     1.0513 N.pl3   
   4 N4             1.4570    -0.7186    -0.0048 N.am    
   5 C5             2.5713    -0.0366     0.6710 C.3     
   6 C6             2.3158     1.4753     0.6646 C.3     
   7 N7            -0.9051     2.6397     1.7101 N.2     
   8 N8            -1.1579     1.4077     1.4281 N.2     
   9 C9             0.3708     2.8896     1.4965 C.2     
  10 C10            2.9856     5.4448     1.6332 C.ar    
  11 N11            2.3669     4.2974     1.4501 N.ar    
  12 C12            1.0638     4.1797     1.7033 C.ar    
  13 C13            0.3624     5.2976     2.1678 C.ar    
  14 C14            1.0574     6.4804     2.3439 C.ar    
  15 N15            2.3527     6.5158     2.0696 N.ar    
  16 C16            1.6574    -1.4148    -1.1413 C.2     
  17 O17            2.7490    -1.4042    -1.6761 O.2     
  18 C18            0.5502    -2.1910    -1.7373 C.ar    
  19 C19            0.3188    -2.1396    -3.1142 C.ar    
  20 C20           -0.7190    -2.8686    -3.6641 C.ar    
  21 C21           -1.5269    -3.6468    -2.8531 C.ar    
  22 C22           -1.3019    -3.7005    -1.4890 C.ar    
  23 C23           -0.2657    -2.9833    -0.9279 C.ar    
  24 Cl24          -1.0099    -2.8075    -5.3744 Cl      
  25 Cl25           1.3312    -1.1628    -4.1313 Cl      
  26 H26            0.0450    -1.2772     1.4634 H       
  27 H27           -0.6441    -0.8895    -0.1379 H       
  28 H28            2.6438    -0.3893     1.6998 H       
  29 H29            3.5018    -0.2509     0.1454 H       
  30 H30            2.4934     1.8705    -0.3355 H       
  31 H31            2.9865     1.9610     1.3735 H       
  32 H32            4.0432     5.5096     1.4240 H       
  33 H33           -0.6943     5.2386     2.3828 H       
  34 H34            0.5500     7.3646     2.7004 H       
  35 H35           -2.3368    -4.2143    -3.2871 H       
  36 H36           -1.9365    -4.3095    -0.8622 H       
  37 H37           -0.0892    -3.0307     0.1365 H       
@<TRIPOS>BOND
   1    1    2 1
   2    1    3 1
   3    1    8 2
   4    2    4 1
   5    2   26 1
   6    2   27 1
   7    3    6 1
   8    3    9 1
   9    4    5 1
  10    4   16 am
  11    5    6 1
  12    5   28 1
  13    5   29 1
  14    6   30 1
  15    6   31 1
  16    7    8 1
  17    7    9 2
  18    9   12 1
  19   10   11 ar
  20   10   15 ar
  21   10   32 1
  22   11   12 ar
  23   12   13 ar
  24   13   14 ar
  25   13   33 1
  26   14   15 ar
  27   14   34 1
  28   16   17 2
  29   16   18 1
  30   18   19 ar
  31   18   23 ar
  32   19   20 ar
  33   19   25 1
  34   20   21 ar
  35   20   24 1
  36   21   22 ar
  37   21   35 1
  38   22   23 ar
  39   22   36 1
  40   23   37 1

#	End of record

