#	Name: ASD01000119
#	Creating user name:	WinNT
#	Creation time:	15. 06. 2019 18:54

#	Modifying user name:	WinNT
#	Modification time:	15. 06. 2019 18:54

#	Program:	/corina/corina34_cracker 3.40 0067  02.08.2006

@<TRIPOS>MOLECULE
ASD01000119
  44   47    0    0    0
SMALL
NO_CHARGES


@<TRIPOS>ATOM
   1 C1            -0.0170     1.4025     0.0098 C.ar    
   2 C2             0.0021    -0.0041     0.0020 C.ar    
   3 N3            -1.1441    -0.6618     0.0101 N.ar    
   4 C4            -2.3000    -0.0071     0.0253 C.ar    
   5 N5            -2.3617     1.3149     0.0325 N.ar    
   6 C6            -1.2511     2.0533     0.0301 C.ar    
   7 N7             1.3014     1.8216    -0.0006 N.am    
   8 C8             2.0921     0.7310    -0.0140 C.2     
   9 N9             1.3334    -0.3818    -0.0127 N.am    
  10 C10           -1.3261     3.5325     0.0383 C.2     
  11 N11           -2.5260     4.1464     0.0483 N.am    
  12 O12           -0.3059     4.1927     0.0359 O.2     
  13 O13            3.3084     0.7486    -0.0255 O.2     
  14 C14            1.8111    -1.6991    -0.0239 C.ar    
  15 C15            0.9189    -2.7626    -0.0207 C.ar    
  16 C16            1.3929    -4.0601    -0.0322 C.ar    
  17 C17            2.7544    -4.3001    -0.0466 C.ar    
  18 C18            3.6458    -3.2427    -0.0499 C.ar    
  19 C19            3.1780    -1.9433    -0.0442 C.ar    
  20 C20            3.2682    -5.7167    -0.0582 C.3     
  21 C21            5.1290    -3.5086    -0.0651 C.3     
  22 C22           -3.5628    -0.7833     0.0339 C.ar    
  23 C23           -4.7898    -0.1223     0.0498 C.ar    
  24 C24           -5.9626    -0.8485     0.0573 C.ar    
  25 C25           -5.9238    -2.2338     0.0490 C.ar    
  26 C26           -4.7079    -2.8974     0.0336 C.ar    
  27 C27           -3.5273    -2.1793     0.0202 C.ar    
  28 F28           -2.3414    -2.8263     0.0052 F       
  29 F29           -7.0757    -2.9396     0.0564 F       
  30 H30            1.6045     2.7431     0.0010 H       
  31 H31           -3.3403     3.6194     0.0502 H       
  32 H32           -2.5751     5.1151     0.0537 H       
  33 H33           -0.1448    -2.5758    -0.0087 H       
  34 H34            0.6992    -4.8879    -0.0297 H       
  35 H35            3.8745    -1.1180    -0.0471 H       
  36 H36            3.3820    -6.0535    -1.0886 H       
  37 H37            4.2336    -5.7572     0.4461 H       
  38 H38            2.5604    -6.3641     0.4595 H       
  39 H39            5.4770    -3.5678    -1.0963 H       
  40 H40            5.6486    -2.6992     0.4478 H       
  41 H41            5.3344    -4.4512     0.4424 H       
  42 H42           -4.8223     0.9572     0.0567 H       
  43 H43           -6.9133    -0.3363     0.0700 H       
  44 H44           -4.6827    -3.9770     0.0275 H       
@<TRIPOS>BOND
   1    1    2 ar
   2    1    7 1
   3    1    6 ar
   4    2    3 ar
   5    2    9 1
   6    3    4 ar
   7    4    5 ar
   8    4   22 1
   9    5    6 ar
  10    6   10 1
  11    7    8 am
  12    7   30 1
  13    8    9 am
  14    8   13 2
  15    9   14 1
  16   10   11 am
  17   10   12 2
  18   11   31 1
  19   11   32 1
  20   14   15 ar
  21   14   19 ar
  22   15   16 ar
  23   15   33 1
  24   16   17 ar
  25   16   34 1
  26   17   18 ar
  27   17   20 1
  28   18   19 ar
  29   18   21 1
  30   19   35 1
  31   20   36 1
  32   20   37 1
  33   20   38 1
  34   21   39 1
  35   21   40 1
  36   21   41 1
  37   22   23 ar
  38   22   27 ar
  39   23   24 ar
  40   23   42 1
  41   24   25 ar
  42   24   43 1
  43   25   26 ar
  44   25   29 1
  45   26   27 ar
  46   26   44 1
  47   27   28 1

#	End of record

