#	Name: ASD05490118
#	Creating user name:	WinNT
#	Creation time:	15. 06. 2019 21:01

#	Modifying user name:	WinNT
#	Modification time:	15. 06. 2019 21:01

#	Program:	/corina/corina34_cracker 3.40 0067  02.08.2006

@<TRIPOS>MOLECULE
ASD05490118
  53   56    0    0    0
SMALL
NO_CHARGES


@<TRIPOS>ATOM
   1 N1            -0.0178     1.4608     0.0101 N.pl3   
   2 O2             4.5582     2.8949    -0.0261 O.3     
   3 N3             2.7941     4.3826    -0.0015 N.ar    
   4 C4             1.4952     4.6638     0.0118 C.ar    
   5 C5             3.2233     3.1292    -0.0123 C.ar    
   6 N6             2.3949     2.0994    -0.0093 N.ar    
   7 C7             1.0795     2.2895     0.0040 C.ar    
   8 C8             0.5781     3.6006     0.0150 C.ar    
   9 N9             1.0558     5.9772     0.0226 N.pl3   
  10 C10           -1.1306     2.2546     0.0190 C.2     
  11 N11           -0.7773     3.5129     0.0270 N.2     
  12 C12            5.4173     4.0368    -0.0280 C.3     
  13 C13            6.8766     3.5771    -0.0442 C.3     
  14 C14            7.7962     4.7955    -0.1721 C.3     
  15 C15            9.2543     4.3334    -0.1082 C.3     
  16 C16            0.0021    -0.0041     0.0020 C.3     
  17 C17            0.0225    -0.5140     1.4200 C.ar    
  18 C18           -1.1652    -0.7640     2.0814 C.ar    
  19 C19           -1.1470    -1.2322     3.3820 C.ar    
  20 C20            0.0599    -1.4504     4.0213 C.ar    
  21 C21            1.2483    -1.2000     3.3589 C.ar    
  22 C22            1.2292    -0.7370     2.0569 C.ar    
  23 Br23           0.0854    -2.0902     5.8006 Br      
  24 O24            9.4772     3.6323     1.1169 O.3     
  25 C25            8.6786     2.4572     1.2704 C.3     
  26 C26            7.1973     2.8439     1.2619 C.3     
  27 O27           -2.4073     1.8048     0.0270 O.3     
  28 C28           -3.4422     2.7900     0.0462 C.3     
  29 C29           -2.4419    -1.5044     4.1032 C.3     
  30 F30           -3.5172    -1.2103     3.2579 F       
  31 F31           -2.4950    -2.8524     4.4735 F       
  32 F32           -2.5157    -0.7031     5.2476 F       
  33 H33            1.6985     6.7037     0.0206 H       
  34 H34            0.1053     6.1706     0.0323 H       
  35 H35            5.2168     4.6408    -0.9129 H       
  36 H36            5.2335     4.6312     0.8670 H       
  37 H37            7.0386     2.9077    -0.8890 H       
  38 H38            7.6128     5.2918    -1.1250 H       
  39 H39            7.5977     5.4890     0.6451 H       
  40 H40            9.4631     3.6717    -0.9488 H       
  41 H41            9.9129     5.2006    -0.1557 H       
  42 H42           -0.8878    -0.3767    -0.5053 H       
  43 H43            0.8920    -0.3525    -0.5222 H       
  44 H44           -2.1075    -0.5933     1.5822 H       
  45 H45            2.1910    -1.3702     3.8578 H       
  46 H46            2.1569    -0.5418     1.5396 H       
  47 H47            8.8798     1.7710     0.4478 H       
  48 H48            8.9224     1.9729     2.2160 H       
  49 H49            6.9868     3.4981     2.1080 H       
  50 H50            6.5857     1.9447     1.3345 H       
  51 H51           -3.3425     3.4042     0.9411 H       
  52 H52           -3.3595     3.4211    -0.8387 H       
  53 H53           -4.4139     2.2962     0.0508 H       
@<TRIPOS>BOND
   1    1   16 1
   2    1    7 1
   3    1   10 1
   4    2   12 1
   5    2    5 1
   6    3    4 ar
   7    3    5 ar
   8    4    9 1
   9    4    8 ar
  10    5    6 ar
  11    6    7 ar
  12    7    8 ar
  13    8   11 1
  14    9   33 1
  15    9   34 1
  16   10   11 2
  17   10   27 1
  18   12   13 1
  19   12   35 1
  20   12   36 1
  21   13   14 1
  22   13   26 1
  23   13   37 1
  24   14   15 1
  25   14   38 1
  26   14   39 1
  27   15   24 1
  28   15   40 1
  29   15   41 1
  30   16   17 1
  31   16   42 1
  32   16   43 1
  33   17   18 ar
  34   17   22 ar
  35   18   19 ar
  36   18   44 1
  37   19   20 ar
  38   19   29 1
  39   20   21 ar
  40   20   23 1
  41   21   22 ar
  42   21   45 1
  43   22   46 1
  44   24   25 1
  45   25   26 1
  46   25   47 1
  47   25   48 1
  48   26   49 1
  49   26   50 1
  50   27   28 1
  51   28   51 1
  52   28   52 1
  53   28   53 1
  54   29   30 1
  55   29   31 1
  56   29   32 1

#	End of record

