#	Name: ASD01151060
#	Creating user name:	WinNT
#	Creation time:	15. 06. 2019 19:05

#	Modifying user name:	WinNT
#	Modification time:	15. 06. 2019 19:05

#	Program:	/corina/corina34_cracker 3.40 0067  02.08.2006

@<TRIPOS>MOLECULE
ASD01151060
  55   57    0    0    0
SMALL
NO_CHARGES


@<TRIPOS>ATOM
   1 O1            -0.1265     1.5864     0.5922 O.2     
   2 C2            -0.3333     2.6557     1.1324 C.2     
   3 C3             0.7879     3.5834     1.3879 C.ar    
   4 C4             0.5533     4.8123     2.0083 C.ar    
   5 C5             1.6020     5.6767     2.2457 C.ar    
   6 C6             2.8876     5.3320     1.8712 C.ar    
   7 C7             3.1331     4.1122     1.2533 C.ar    
   8 C8             2.0868     3.2322     1.0152 C.ar    
   9 Cl9            2.3896     1.7067     0.2439 Cl      
  10 N10            4.4361     3.7684     0.8764 N.am    
  11 C11            5.4880     4.2686     1.5546 C.2     
  12 O12            5.3080     5.0720     2.4491 O.2     
  13 C13            6.8603     3.8404     1.2108 C.ar    
  14 C14            7.9519     4.3565     1.9113 C.ar    
  15 C15            9.2300     3.9522     1.5857 C.ar    
  16 C16            9.4313     3.0377     0.5671 C.ar    
  17 C17            8.3537     2.5222    -0.1312 C.ar    
  18 C18            7.0700     2.9137     0.1882 C.ar    
  19 N19           -1.5862     2.9972     1.4932 N.am    
  20 C20           -2.6604     2.1649     1.1631 C.ar    
  21 C21           -3.7265     2.6638     0.4258 C.ar    
  22 C22           -3.7271     4.1034    -0.0201 C.3     
  23 C23           -4.7858     1.8392     0.1015 C.ar    
  24 C24           -4.7858     0.5180     0.5099 C.ar    
  25 C25           -3.7259     0.0181     1.2440 C.ar    
  26 C26           -2.6608     0.8359     1.5668 C.ar    
  27 C27           -1.5059     0.2902     2.3665 C.3     
  28 C28           -5.9436    -0.3788     0.1546 C.3     
  29 C29           -5.8682    -0.7453    -1.3289 C.3     
  30 F30           -4.6950    -1.4675    -1.5718 F       
  31 F31           -6.9765    -1.5266    -1.6731 F       
  32 F32           -5.8643     0.4231    -2.0983 F       
  33 C33           -5.8793    -1.6532     0.9987 C.3     
  34 F34           -5.8061    -1.3120     2.3535 F       
  35 F35           -7.0268    -2.4208     0.7725 F       
  36 F36           -4.7462    -2.3921     0.6420 F       
  37 F37           -7.1461     0.2892     0.4094 F       
  38 H38           -0.4493     5.0862     2.3019 H       
  39 H39            1.4180     6.6266     2.7256 H       
  40 H40            3.7038     6.0137     2.0593 H       
  41 H41            4.5824     3.1701     0.1270 H       
  42 H42            7.7962     5.0709     2.7061 H       
  43 H43           10.0755     4.3508     2.1268 H       
  44 H44           10.4340     2.7251     0.3157 H       
  45 H45            8.5177     1.8087    -0.9251 H       
  46 H46            6.2297     2.5106    -0.3576 H       
  47 H47           -1.7428     3.8204     1.9819 H       
  48 H48           -3.2516     4.1811    -0.9978 H       
  49 H49           -4.7540     4.4629    -0.0859 H       
  50 H50           -3.1762     4.7073     0.7009 H       
  51 H51           -5.6153     2.2267    -0.4714 H       
  52 H52           -3.7289    -1.0142     1.5615 H       
  53 H53           -0.8180    -0.2319     1.7014 H       
  54 H54           -0.9837     1.1113     2.8575 H       
  55 H55           -1.8807    -0.4037     3.1190 H       
@<TRIPOS>BOND
   1    1    2 2
   2    2    3 1
   3    2   19 am
   4    3    4 ar
   5    3    8 ar
   6    4    5 ar
   7    4   38 1
   8    5    6 ar
   9    5   39 1
  10    6    7 ar
  11    6   40 1
  12    7    8 ar
  13    7   10 1
  14    8    9 1
  15   10   11 am
  16   10   41 1
  17   11   12 2
  18   11   13 1
  19   13   14 ar
  20   13   18 ar
  21   14   15 ar
  22   14   42 1
  23   15   16 ar
  24   15   43 1
  25   16   17 ar
  26   16   44 1
  27   17   18 ar
  28   17   45 1
  29   18   46 1
  30   19   20 1
  31   19   47 1
  32   20   21 ar
  33   20   26 ar
  34   21   22 1
  35   21   23 ar
  36   22   48 1
  37   22   49 1
  38   22   50 1
  39   23   24 ar
  40   23   51 1
  41   24   25 ar
  42   24   28 1
  43   25   26 ar
  44   25   52 1
  45   26   27 1
  46   27   53 1
  47   27   54 1
  48   27   55 1
  49   28   29 1
  50   28   33 1
  51   28   37 1
  52   29   30 1
  53   29   31 1
  54   29   32 1
  55   33   34 1
  56   33   35 1
  57   33   36 1

#	End of record

