#	Name: ASD01440059
#	Creating user name:	WinNT
#	Creation time:	15. 06. 2019 19:21

#	Modifying user name:	WinNT
#	Modification time:	15. 06. 2019 19:21

#	Program:	/corina/corina34_cracker 3.40 0067  02.08.2006

@<TRIPOS>MOLECULE
ASD01440059
  41   43    0    0    0
SMALL
NO_CHARGES


@<TRIPOS>ATOM
   1 C1             0.9408    -0.2741     0.4950 C.ar    
   2 C2            -0.0410     0.3957     1.2017 C.ar    
   3 N3             0.1981     1.5743     1.7425 N.ar    
   4 C4             1.3730     2.1623     1.6351 C.ar    
   5 C5             2.4092     1.5524     0.9407 C.ar    
   6 C6             2.1905     0.3069     0.3570 C.ar    
   7 N7             3.6550     2.1803     0.8286 N.am    
   8 C8             4.7810     1.4408     0.7871 C.2     
   9 C9             6.1116     2.1069     0.5487 C.3     
  10 O10            4.7234     0.2392     0.9415 O.2     
  11 O11            7.1451     1.1201     0.5485 O.3     
  12 C12            8.4137     1.5567     0.3456 C.ar    
  13 C13            8.6583     2.9123     0.1561 C.ar    
  14 C14            9.4660     0.6479     0.3336 C.ar    
  15 C15           10.7546     1.0866     0.1286 C.ar    
  16 C16           11.0044     2.4484    -0.0682 C.ar    
  17 C17            9.9437     3.3596    -0.0500 C.ar    
  18 C18           12.3835     2.9232    -0.2877 C.2     
  19 C19           12.6332     4.3425    -0.6124 C.ar    
  20 O20           13.3149     2.1462    -0.2014 O.2     
  21 C21           13.3715     6.5319     0.0502 C.ar    
  22 C22           13.1405     5.2059     0.3609 C.ar    
  23 C23           12.3682     4.8260    -1.8969 C.ar    
  24 C24           12.6036     6.1534    -2.1939 C.ar    
  25 C25           13.1012     7.0051    -1.2243 C.ar    
  26 Br26          11.6891     3.6639    -3.2251 Br      
  27 F27           13.8618     7.3692     0.9903 F       
  28 H28            0.7369    -1.2410     0.0594 H       
  29 H29           -1.0173    -0.0526     1.3120 H       
  30 H30            1.5310     3.1283     2.0914 H       
  31 H31            2.9762    -0.1938    -0.1893 H       
  32 H32            3.7080     3.1476     0.7808 H       
  33 H33            6.0954     2.6164    -0.4148 H       
  34 H34            6.3018     2.8321     1.3400 H       
  35 H35            7.8385     3.6153     0.1703 H       
  36 H36            9.2721    -0.4036     0.4856 H       
  37 H37           11.5714     0.3801     0.1201 H       
  38 H38           10.1327     4.4127    -0.1975 H       
  39 H39           13.3513     4.8379     1.3542 H       
  40 H40           12.3991     6.5278    -3.1861 H       
  41 H41           13.2831     8.0427    -1.4622 H       
@<TRIPOS>BOND
   1    1    2 ar
   2    1    6 ar
   3    1   28 1
   4    2    3 ar
   5    2   29 1
   6    3    4 ar
   7    4    5 ar
   8    4   30 1
   9    5    6 ar
  10    5    7 1
  11    6   31 1
  12    7    8 am
  13    7   32 1
  14    8    9 1
  15    8   10 2
  16    9   11 1
  17    9   33 1
  18    9   34 1
  19   11   12 1
  20   12   14 ar
  21   12   13 ar
  22   13   17 ar
  23   13   35 1
  24   14   15 ar
  25   14   36 1
  26   15   16 ar
  27   15   37 1
  28   16   17 ar
  29   16   18 1
  30   17   38 1
  31   18   19 1
  32   18   20 2
  33   19   23 ar
  34   19   22 ar
  35   21   22 ar
  36   21   25 ar
  37   21   27 1
  38   22   39 1
  39   23   24 ar
  40   23   26 1
  41   24   25 ar
  42   24   40 1
  43   25   41 1

#	End of record

