#	Name: ASD01810259
#	Creating user name:	WinNT
#	Creation time:	15. 06. 2019 19:24

#	Modifying user name:	WinNT
#	Modification time:	15. 06. 2019 19:24

#	Program:	/corina/corina34_cracker 3.40 0067  02.08.2006

@<TRIPOS>MOLECULE
ASD01810259
  61   66    0    0    0
SMALL
NO_CHARGES


@<TRIPOS>ATOM
   1 C1            -0.0355     1.3594     0.2312 C.ar    
   2 C2            -0.0056    -0.0335     0.2259 C.ar    
   3 C3             1.1734    -0.7095     0.1393 C.ar    
   4 C4             2.3800     0.0032     0.0533 C.ar    
   5 C5             2.3503     1.4222     0.0582 C.ar    
   6 C6             1.1133     2.0847     0.1495 C.ar    
   7 C7             3.6153    -0.6641    -0.0383 C.ar    
   8 C8             4.7694     0.0440    -0.1215 C.ar    
   9 C9             4.7566     1.4528    -0.1175 C.ar    
  10 C10            3.5523     2.1330    -0.0279 C.ar    
  11 C11            5.8455     2.4461    -0.1945 C.2     
  12 N12            5.3443     3.6925    -0.1550 N.am    
  13 C13            3.8834     3.6041    -0.0486 C.3     
  14 O14            7.0276     2.1753    -0.2808 O.2     
  15 C15            6.0902     4.8757    -0.2070 C.ar    
  16 C16            3.6564    -2.1705    -0.0436 C.3     
  17 N17            3.4391    -2.6711     1.3203 N.3     
  18 C18            3.1078    -4.1017     1.3092 C.3     
  19 C19            2.7468    -4.5540     2.7260 C.3     
  20 C20            3.9335    -4.2930     3.6578 C.3     
  21 C21            4.2890    -2.8043     3.6138 C.3     
  22 C22            4.6053    -2.4027     2.1714 C.3     
  23 C23            3.5628    -4.6809     5.0660 C.ar    
  24 C24            4.5543    -4.8292     6.0170 C.ar    
  25 N25            2.2953    -4.8696     5.3779 N.ar    
  26 C26            1.9243    -5.2092     6.5968 C.ar    
  27 C27            2.8608    -5.3807     7.5989 C.ar    
  28 C28            4.2026    -5.1859     7.3100 C.ar    
  29 C29            5.0904    -5.0883     3.2155 C.1     
  30 N30            5.9833    -5.7021     2.8741 N.1     
  31 C31            6.3728     5.4667    -1.4305 C.ar    
  32 C32            6.5452     5.4652     0.9680 C.ar    
  33 C33            7.2817     6.6340     0.9121 C.ar    
  34 C34            7.5655     7.2159    -0.3102 C.ar    
  35 C35            7.1094     6.6348    -1.4787 C.ar    
  36 F36            6.2676     4.8969     2.1618 F       
  37 H37           -0.9843     1.8710     0.2966 H       
  38 H38           -0.9315    -0.5856     0.2918 H       
  39 H39            1.1803    -1.7895     0.1371 H       
  40 H40            1.0750     3.1640     0.1547 H       
  41 H41            5.7114    -0.4797    -0.1914 H       
  42 H42            3.4152     4.0816    -0.9094 H       
  43 H43            3.5453     4.0774     0.8732 H       
  44 H44            2.8747    -2.5531    -0.6999 H       
  45 H45            4.6291    -2.5062    -0.4032 H       
  46 H46            2.2598    -4.2730     0.6461 H       
  47 H47            3.9670    -4.6707     0.9542 H       
  48 H48            1.8791    -3.9950     3.0764 H       
  49 H49            2.5161    -5.6193     2.7202 H       
  50 H50            3.4456    -2.2178     3.9782 H       
  51 H51            5.1601    -2.6195     4.2424 H       
  52 H52            5.4575    -2.9797     1.8123 H       
  53 H53            4.8450    -1.3400     2.1345 H       
  54 H54            5.5902    -4.6696     5.7563 H       
  55 H55            0.8766    -5.3548     6.8147 H       
  56 H56            2.5508    -5.6589     8.5953 H       
  57 H57            4.9565    -5.3131     8.0729 H       
  58 H58            6.0175     5.0138    -2.3443 H       
  59 H59            7.6354     7.0931     1.8234 H       
  60 H60            8.1410     8.1289    -0.3515 H       
  61 H61            7.3333     7.0920    -2.4312 H       
@<TRIPOS>BOND
   1    1    2 ar
   2    1    6 ar
   3    1   37 1
   4    2    3 ar
   5    2   38 1
   6    3    4 ar
   7    3   39 1
   8    4    5 ar
   9    4    7 ar
  10    5    6 ar
  11    5   10 ar
  12    6   40 1
  13    7    8 ar
  14    7   16 1
  15    8    9 ar
  16    8   41 1
  17    9   10 ar
  18    9   11 1
  19   10   13 1
  20   11   12 am
  21   11   14 2
  22   12   13 1
  23   12   15 1
  24   13   42 1
  25   13   43 1
  26   15   31 ar
  27   15   32 ar
  28   16   17 1
  29   16   44 1
  30   16   45 1
  31   17   18 1
  32   17   22 1
  33   18   19 1
  34   18   46 1
  35   18   47 1
  36   19   20 1
  37   19   48 1
  38   19   49 1
  39   20   21 1
  40   20   23 1
  41   20   29 1
  42   21   22 1
  43   21   50 1
  44   21   51 1
  45   22   52 1
  46   22   53 1
  47   23   24 ar
  48   23   25 ar
  49   24   28 ar
  50   24   54 1
  51   25   26 ar
  52   26   27 ar
  53   26   55 1
  54   27   28 ar
  55   27   56 1
  56   28   57 1
  57   29   30 3
  58   31   35 ar
  59   31   58 1
  60   32   33 ar
  61   32   36 1
  62   33   34 ar
  63   33   59 1
  64   34   35 ar
  65   34   60 1
  66   35   61 1

#	End of record

