#	Name: ASD02508283
#	Creating user name:	WinNT
#	Creation time:	15. 06. 2019 20:24

#	Modifying user name:	WinNT
#	Modification time:	15. 06. 2019 20:24

#	Program:	/corina/corina34_cracker 3.40 0067  02.08.2006

@<TRIPOS>MOLECULE
ASD02508283
  36   38    0    0    0
SMALL
NO_CHARGES


@<TRIPOS>ATOM
   1 C1            -0.0711     1.3040     0.3831 C.ar    
   2 C2            -0.0630    -0.0706     0.1478 C.ar    
   3 C3            -1.2587    -0.7657     0.0558 C.ar    
   4 C4            -2.4569    -0.0934     0.1976 C.ar    
   5 C5            -2.4660     1.2709     0.4307 C.ar    
   6 C6            -1.2784     1.9693     0.5290 C.ar    
   7 S7            -3.9781    -0.9749     0.0810 S.o2    
   8 N8            -4.7831    -0.3904    -1.2429 N.am    
   9 C9            -4.2723    -0.6109    -2.5248 C.ar    
  10 O10            1.2206     1.7130     0.4240 O.3     
  11 C11            2.0242     0.6564     0.2253 C.2     
  12 N12            1.2754    -0.4508     0.0528 N.am    
  13 O13           -3.6393    -2.3221    -0.2179 O.2     
  14 O14           -4.7470    -0.6003     1.2158 O.2     
  15 O15            3.2395     0.6926     0.2043 O.2     
  16 C16            1.7759    -1.8060    -0.1906 C.3     
  17 C17           -5.1133    -1.0367    -3.5449 C.ar    
  18 C18           -3.7778     1.9969     0.5832 C.3     
  19 C19           -2.9241    -0.3991    -2.7822 C.ar    
  20 C20           -2.4212    -0.6177    -4.0501 C.ar    
  21 C21           -3.2591    -1.0469    -5.0637 C.ar    
  22 C22           -4.6053    -1.2540    -4.8116 C.ar    
  23 Cl23          -5.6538    -1.7926    -6.0861 Cl      
  24 Cl24          -2.6237    -1.3195    -6.6561 Cl      
  25 H25           -1.2535    -1.8302    -0.1267 H       
  26 H26           -1.2906     3.0337     0.7113 H       
  27 H27           -5.6092     0.1050    -1.1285 H       
  28 H28            2.8656    -1.7922    -0.2135 H       
  29 H29            1.4376    -2.4670     0.6073 H       
  30 H30            1.3970    -2.1670    -1.1467 H       
  31 H31           -6.1629    -1.1982    -3.3484 H       
  32 H32           -4.1204     1.9153     1.6148 H       
  33 H33           -3.6433     3.0479     0.3271 H       
  34 H34           -4.5184     1.5528    -0.0818 H       
  35 H35           -2.2693    -0.0634    -1.9917 H       
  36 H36           -1.3728    -0.4531    -4.2504 H       
@<TRIPOS>BOND
   1    1    2 ar
   2    1   10 1
   3    1    6 ar
   4    2    3 ar
   5    2   12 1
   6    3    4 ar
   7    3   25 1
   8    4    5 ar
   9    4    7 1
  10    5    6 ar
  11    5   18 1
  12    6   26 1
  13    7    8 am
  14    7   13 2
  15    7   14 2
  16    8    9 1
  17    8   27 1
  18    9   17 ar
  19    9   19 ar
  20   10   11 1
  21   11   12 am
  22   11   15 2
  23   12   16 1
  24   16   28 1
  25   16   29 1
  26   16   30 1
  27   17   22 ar
  28   17   31 1
  29   18   32 1
  30   18   33 1
  31   18   34 1
  32   19   20 ar
  33   19   35 1
  34   20   21 ar
  35   20   36 1
  36   21   22 ar
  37   21   24 1
  38   22   23 1

#	End of record

