#	Name: ASD04882021
#	Creating user name:	WinNT
#	Creation time:	15. 06. 2019 20:53

#	Modifying user name:	WinNT
#	Modification time:	15. 06. 2019 20:53

#	Program:	/corina/corina34_cracker 3.40 0067  02.08.2006

@<TRIPOS>MOLECULE
ASD04882021
  66   70    0    0    0
SMALL
NO_CHARGES


@<TRIPOS>ATOM
   1 C1             1.2320    -1.0450     0.2456 C.ar    
   2 C2             0.7263    -1.8290    -0.7748 C.ar    
   3 C3             1.2565    -1.7379    -2.0489 C.ar    
   4 C4             2.2933    -0.8629    -2.3060 C.ar    
   5 C5             2.8039    -0.0736    -1.2830 C.ar    
   6 C6             2.2690    -0.1676    -0.0046 C.ar    
   7 N7             3.8529     0.8122    -1.5394 N.3     
   8 C8             5.0479     0.4520    -0.7636 C.3     
   9 C9             6.1953     1.3956    -1.1316 C.3     
  10 N10            5.7923     2.7823    -0.8590 N.3     
  11 C11            4.5973     3.1425    -1.6348 C.3     
  12 C12            3.4499     2.1989    -1.2669 C.3     
  13 C13            6.8381     3.6654    -1.1147 C.ar    
  14 C14            6.7372     4.5768    -2.1590 C.ar    
  15 C15            7.7695     5.4523    -2.4155 C.ar    
  16 C16            8.9220     5.4259    -1.6259 C.ar    
  17 C17            9.0260     4.5100    -0.5747 C.ar    
  18 C18            7.9858     3.6378    -0.3169 C.ar    
  19 N19            8.0862     2.7183     0.7357 N.am    
  20 C20            9.2986     2.3267     1.1751 C.2     
  21 C21            9.4073     1.4546     2.3580 C.2     
  22 O22           10.3031     2.6931     0.5953 O.2     
  23 C23            8.3854     0.9595     3.1142 C.2     
  24 C24           10.6392     0.9311     2.9660 C.2     
  25 C25           10.2474     0.1893     4.0132 C.2     
  26 O26            8.9077     0.2128     4.0920 O.3     
  27 C27           10.0277     6.3629    -1.9013 C.2     
  28 N28           10.3798     6.6344    -3.1736 N.am    
  29 O29           10.6215     6.8901    -0.9804 O.2     
  30 C30           11.5360     7.4938    -3.4699 C.3     
  31 C31            2.8707    -0.7646    -3.6945 C.3     
  32 C32            9.6216     6.0743    -4.3026 C.3     
  33 C33           10.6069     5.4033    -5.2655 C.3     
  34 N34           11.6549     6.3635    -5.6364 N.3     
  35 C35           12.4421     6.7640    -4.4672 C.3     
  36 H36            0.8127    -1.1154     1.2384 H       
  37 H37           -0.0844    -2.5145    -0.5763 H       
  38 H38            0.8594    -2.3520    -2.8436 H       
  39 H39            2.6636     0.4445     0.7928 H       
  40 H40            4.8309     0.5410     0.3008 H       
  41 H41            5.3339    -0.5747    -0.9921 H       
  42 H42            7.0744     1.1487    -0.5363 H       
  43 H43            6.4305     1.2867    -2.1904 H       
  44 H44            4.3113     4.1692    -1.4063 H       
  45 H45            4.8143     3.0534    -2.6993 H       
  46 H46            2.5708     2.4458    -1.8622 H       
  47 H47            3.2147     2.3078    -0.2081 H       
  48 H48            5.8477     4.5986    -2.7711 H       
  49 H49            7.6881     6.1594    -3.2278 H       
  50 H50            9.9155     4.4873     0.0373 H       
  51 H51            7.2830     2.3636     1.1481 H       
  52 H52            7.3333     1.1404     2.9507 H       
  53 H53           11.6526     1.1073     2.6368 H       
  54 H54           10.9048    -0.3440     4.6838 H       
  55 H55           11.1927     8.4321    -3.9057 H       
  56 H56           12.0884     7.6938    -2.5518 H       
  57 H57            2.2766    -0.0686    -4.2866 H       
  58 H58            3.8986    -0.4065    -3.6360 H       
  59 H59            2.8547    -1.7477    -4.1651 H       
  60 H60            8.9089     5.3362    -3.9348 H       
  61 H61            9.0910     6.8737    -4.8199 H       
  62 H62           11.0604     4.5399    -4.7786 H       
  63 H63           10.0767     5.0794    -6.1611 H       
  64 H64           12.2499     5.9878    -6.3596 H       
  65 H65           13.2440     7.4326    -4.7803 H       
  66 H66           12.8691     5.8790    -3.9956 H       
@<TRIPOS>BOND
   1    1    2 ar
   2    1    6 ar
   3    1   36 1
   4    2    3 ar
   5    2   37 1
   6    3    4 ar
   7    3   38 1
   8    4    5 ar
   9    4   31 1
  10    5    6 ar
  11    5    7 1
  12    6   39 1
  13    7    8 1
  14    7   12 1
  15    8    9 1
  16    8   40 1
  17    8   41 1
  18    9   10 1
  19    9   42 1
  20    9   43 1
  21   10   11 1
  22   10   13 1
  23   11   12 1
  24   11   44 1
  25   11   45 1
  26   12   46 1
  27   12   47 1
  28   13   14 ar
  29   13   18 ar
  30   14   15 ar
  31   14   48 1
  32   15   16 ar
  33   15   49 1
  34   16   17 ar
  35   16   27 1
  36   17   18 ar
  37   17   50 1
  38   18   19 1
  39   19   20 am
  40   19   51 1
  41   20   21 1
  42   20   22 2
  43   21   23 2
  44   21   24 1
  45   23   26 1
  46   23   52 1
  47   24   25 2
  48   24   53 1
  49   25   26 1
  50   25   54 1
  51   27   28 am
  52   27   29 2
  53   28   30 1
  54   28   32 1
  55   30   35 1
  56   30   55 1
  57   30   56 1
  58   31   57 1
  59   31   58 1
  60   31   59 1
  61   32   33 1
  62   32   60 1
  63   32   61 1
  64   33   34 1
  65   33   62 1
  66   33   63 1
  67   34   35 1
  68   34   64 1
  69   35   65 1
  70   35   66 1

#	End of record

