#	Name: ASD01209165
#	Creating user name:	WinNT
#	Creation time:	15. 06. 2019 19:11

#	Modifying user name:	WinNT
#	Modification time:	15. 06. 2019 19:11

#	Program:	/corina/corina34_cracker 3.40 0067  02.08.2006

@<TRIPOS>MOLECULE
ASD01209165
  76   78    0    0    0
SMALL
NO_CHARGES


@<TRIPOS>ATOM
   1 O1             2.1060     0.3388    -0.6871 O.3     
   2 O2             3.6337     1.6276     1.0210 O.3     
   3 C3             3.0658     6.9507    -8.3775 C.ar    
   4 C4             2.3549     6.9171    -9.5682 C.ar    
   5 C5             1.1905     6.1686    -9.6648 C.ar    
   6 C6             0.7338     5.4508    -8.5722 C.ar    
   7 C7             1.4459     5.4817    -7.3724 C.ar    
   8 C8             2.6189     6.2315    -7.2812 C.ar    
   9 O9             0.4974     6.1399   -10.8335 O.3     
  10 C10            0.9616     4.7179    -6.2031 C.2     
  11 N11            1.6507     4.7492    -5.0453 N.am    
  12 O12           -0.0583     4.0616    -6.2858 O.2     
  13 C13            1.1957     4.0315    -3.9467 C.2     
  14 P14            2.9251     1.6995    -0.4229 P.3     
  15 O15            3.9567     1.8657    -1.4710 O.2     
  16 C16            1.7795     3.1169    -0.4677 C.3     
  17 N17            1.7809     3.9933    -2.7904 N.2     
  18 S18           -0.2216     3.0757    -3.9200 S.3     
  19 C19            0.0861     2.6475    -2.2390 C.2     
  20 C20            1.2090     3.2580    -1.8554 C.2     
  21 C21            2.7369    -0.9367    -0.8171 C.3     
  22 C22            1.6734    -2.0094    -1.0604 C.3     
  23 C23            4.6634     0.6884     1.3367 C.3     
  24 C24            5.1129     0.8920     2.7849 C.3     
  25 O25            4.2054     7.6858    -8.2881 O.3     
  26 C26            4.8179     7.7791    -7.0004 C.3     
  27 C27            5.6622     9.0530    -6.9283 C.3     
  28 C28            5.7138     6.5600    -6.7723 C.3     
  29 O29            6.7450     8.9600    -7.8562 O.3     
  30 C30            7.5997    10.1052    -7.8687 C.3     
  31 C31            1.0859     6.8044   -11.9534 C.3     
  32 C32            0.7081     8.2867   -11.9233 C.3     
  33 C33            0.5718     6.1732   -13.2488 C.3     
  34 C34            1.0486     4.7463   -13.3362 C.ar    
  35 C35            0.2796     3.7270   -12.8065 C.ar    
  36 C36            0.7169     2.4181   -12.8865 C.ar    
  37 C37            1.9231     2.1285   -13.4967 C.ar    
  38 C38            2.6916     3.1477   -14.0272 C.ar    
  39 C39            2.2522     4.4561   -13.9509 C.ar    
  40 H40            2.7085     7.4755   -10.4223 H       
  41 H41           -0.1728     4.8687    -8.6482 H       
  42 H42            3.1730     6.2581    -6.3546 H       
  43 H43            2.4646     5.2729    -4.9793 H       
  44 H44            0.9697     2.9521     0.2431 H       
  45 H45            2.3170     4.0270    -0.2015 H       
  46 H46           -0.5287     2.0059    -1.6251 H       
  47 H47            3.4302    -0.9151    -1.6579 H       
  48 H48            3.2826    -1.1671     0.0980 H       
  49 H49            1.1278    -1.7790    -1.9755 H       
  50 H50            2.1547    -2.9823    -1.1596 H       
  51 H51            0.9801    -2.0310    -0.2196 H       
  52 H52            4.2809    -0.3250     1.2141 H       
  53 H53            5.5110     0.8401     0.6684 H       
  54 H54            5.4953     1.9054     2.9075 H       
  55 H55            4.2653     0.7403     3.4532 H       
  56 H56            5.8983     0.1756     3.0258 H       
  57 H57            4.0454     7.8112    -6.2321 H       
  58 H58            5.0425     9.9142    -7.1783 H       
  59 H59            6.0574     9.1704    -5.9193 H       
  60 H60            6.1810     6.6311    -5.7901 H       
  61 H61            5.1123     5.6524    -6.8236 H       
  62 H62            6.4863     6.5279    -7.5406 H       
  63 H63            7.0202    10.9882    -8.1381 H       
  64 H64            8.0351    10.2443    -6.8791 H       
  65 H65            8.3958     9.9564    -8.5982 H       
  66 H66            2.1703     6.7048   -11.9061 H       
  67 H67           -0.3763     8.3862   -11.9705 H       
  68 H68            1.0744     8.7363   -11.0003 H       
  69 H69            1.1570     8.7935   -12.7775 H       
  70 H70           -0.5180     6.1932   -13.2552 H       
  71 H71            0.9505     6.7357   -14.1023 H       
  72 H72           -0.6627     3.9533   -12.3298 H       
  73 H73            0.1165     1.6218   -12.4721 H       
  74 H74            2.2651     1.1059   -13.5586 H       
  75 H75            3.6341     2.9214   -14.5036 H       
  76 H76            2.8526     5.2524   -14.3654 H       
@<TRIPOS>BOND
   1    1   21 1
   2    1   14 1
   3    2   23 1
   4    2   14 1
   5    3    4 ar
   6    3   25 1
   7    3    8 ar
   8    4    5 ar
   9    4   40 1
  10    5    6 ar
  11    5    9 1
  12    6    7 ar
  13    6   41 1
  14    7    8 ar
  15    7   10 1
  16    8   42 1
  17    9   31 1
  18   10   11 am
  19   10   12 2
  20   11   13 1
  21   11   43 1
  22   13   17 2
  23   13   18 1
  24   14   15 2
  25   14   16 1
  26   16   20 1
  27   16   44 1
  28   16   45 1
  29   17   20 1
  30   18   19 1
  31   19   20 2
  32   19   46 1
  33   21   22 1
  34   21   47 1
  35   21   48 1
  36   22   49 1
  37   22   50 1
  38   22   51 1
  39   23   24 1
  40   23   52 1
  41   23   53 1
  42   24   54 1
  43   24   55 1
  44   24   56 1
  45   25   26 1
  46   26   27 1
  47   26   28 1
  48   26   57 1
  49   27   29 1
  50   27   58 1
  51   27   59 1
  52   28   60 1
  53   28   61 1
  54   28   62 1
  55   29   30 1
  56   30   63 1
  57   30   64 1
  58   30   65 1
  59   31   32 1
  60   31   33 1
  61   31   66 1
  62   32   67 1
  63   32   68 1
  64   32   69 1
  65   33   34 1
  66   33   70 1
  67   33   71 1
  68   34   35 ar
  69   34   39 ar
  70   35   36 ar
  71   35   72 1
  72   36   37 ar
  73   36   73 1
  74   37   38 ar
  75   37   74 1
  76   38   39 ar
  77   38   75 1
  78   39   76 1

#	End of record

