#	Name: ASD00110046
#	Creating user name:	WinNT
#	Creation time:	15. 06. 2019 18:30

#	Modifying user name:	WinNT
#	Modification time:	15. 06. 2019 18:30

#	Program:	/corina/corina34_cracker 3.40 0067  02.08.2006

@<TRIPOS>MOLECULE
ASD00110046
  65   65    0    0    0
SMALL
NO_CHARGES


@<TRIPOS>ATOM
   1 C1            -0.0178     1.4642     0.0101 C.3     
   2 N2             0.0021    -0.0041     0.0020 N.3     
   3 C3            -1.3594    -0.5534    -0.0299 C.3     
   4 C4            -2.1159    -0.1188     1.2274 C.3     
   5 C5            -2.1638     1.4106     1.2853 C.3     
   6 C6            -0.7343     1.9591     1.2686 C.3     
   7 C7             1.3960     1.9856    -0.0006 C.2     
   8 O8             2.3098     1.2675     0.3461 O.2     
   9 N9             1.6451     3.2500    -0.3954 N.am    
  10 C10            3.0195     3.7569    -0.4058 C.3     
  11 C11            3.0244     5.2077    -0.8915 C.3     
  12 O12            2.3264     6.0270     0.0485 O.3     
  13 C13            4.4682     5.6972    -1.0214 C.3     
  14 O14            4.4770     7.0105    -1.5847 O.3     
  15 C15           -2.8658     1.8519     2.5711 C.3     
  16 C16           -4.3280     1.4029     2.5337 C.3     
  17 C17           -5.0300     1.8442     3.8195 C.3     
  18 C18           -6.4922     1.3952     3.7821 C.3     
  19 C19           -7.1942     1.8365     5.0679 C.3     
  20 C20           -8.6564     1.3875     5.0305 C.3     
  21 C21           -9.3584     1.8288     6.3163 C.3     
  22 C22          -10.8206     1.3798     6.2789 C.3     
  23 C23          -11.5226     1.8211     7.5647 C.3     
  24 C24          -12.9848     1.3721     7.5273 C.3     
  25 C25          -13.6868     1.8134     8.8131 C.3     
  26 H26           -0.5447     1.8252    -0.8732 H       
  27 H27            0.5514    -0.3540    -0.7686 H       
  28 H28           -1.8798    -0.1830    -0.9132 H       
  29 H29           -1.3111    -1.6417    -0.0668 H       
  30 H30           -3.1313    -0.5137     1.1959 H       
  31 H31           -1.6036    -0.5005     2.1105 H       
  32 H32           -2.7099     1.7908     0.4220 H       
  33 H33           -0.2003     1.6101     2.1524 H       
  34 H34           -0.7626     3.0487     1.2665 H       
  35 H35            0.9142     3.8244    -0.6727 H       
  36 H36            3.4318     3.7097     0.6021 H       
  37 H37            3.6264     3.1475    -1.0755 H       
  38 H38            2.5317     5.2677    -1.8619 H       
  39 H39            2.7104     6.0219     0.9360 H       
  40 H40            4.9337     5.7214    -0.0361 H       
  41 H41            5.0244     5.0201    -1.6696 H       
  42 H42            5.3617     7.3847    -1.6962 H       
  43 H43           -2.3689     1.4002     3.4297 H       
  44 H44           -2.8212     2.9377     2.6551 H       
  45 H45           -4.8249     1.8545     1.6750 H       
  46 H46           -4.3726     0.3170     2.4496 H       
  47 H47           -4.5331     1.3926     4.6781 H       
  48 H48           -4.9854     2.9300     3.9035 H       
  49 H49           -6.9891     1.8468     2.9235 H       
  50 H50           -6.5368     0.3094     3.6980 H       
  51 H51           -6.6973     1.3849     5.9265 H       
  52 H52           -7.1496     2.9223     5.1519 H       
  53 H53           -9.1533     1.8391     4.1719 H       
  54 H54           -8.7010     0.3017     4.9465 H       
  55 H55           -8.8615     1.3772     7.1749 H       
  56 H56           -9.3138     2.9146     6.4004 H       
  57 H57          -11.3175     1.8314     5.4203 H       
  58 H58          -10.8652     0.2940     6.1949 H       
  59 H59          -11.0257     1.3695     8.4234 H       
  60 H60          -11.4780     2.9070     7.6488 H       
  61 H61          -13.4817     1.8237     6.6687 H       
  62 H62          -13.0294     0.2863     7.4433 H       
  63 H63          -13.1899     1.3618     9.6718 H       
  64 H64          -13.6422     2.8993     8.8972 H       
  65 H65          -14.7285     1.4936     8.7865 H       
@<TRIPOS>BOND
   1    1    2 1
   2    1    7 1
   3    1    6 1
   4    1   26 1
   5    2    3 1
   6    2   27 1
   7    3    4 1
   8    3   28 1
   9    3   29 1
  10    4    5 1
  11    4   30 1
  12    4   31 1
  13    5    6 1
  14    5   15 1
  15    5   32 1
  16    6   33 1
  17    6   34 1
  18    7    8 2
  19    7    9 am
  20    9   10 1
  21    9   35 1
  22   10   11 1
  23   10   36 1
  24   10   37 1
  25   11   12 1
  26   11   13 1
  27   11   38 1
  28   12   39 1
  29   13   14 1
  30   13   40 1
  31   13   41 1
  32   14   42 1
  33   15   16 1
  34   15   43 1
  35   15   44 1
  36   16   17 1
  37   16   45 1
  38   16   46 1
  39   17   18 1
  40   17   47 1
  41   17   48 1
  42   18   19 1
  43   18   49 1
  44   18   50 1
  45   19   20 1
  46   19   51 1
  47   19   52 1
  48   20   21 1
  49   20   53 1
  50   20   54 1
  51   21   22 1
  52   21   55 1
  53   21   56 1
  54   22   23 1
  55   22   57 1
  56   22   58 1
  57   23   24 1
  58   23   59 1
  59   23   60 1
  60   24   25 1
  61   24   61 1
  62   24   62 1
  63   25   63 1
  64   25   64 1
  65   25   65 1

#	End of record

