#	Name: ASD01815853
#	Creating user name:	WinNT
#	Creation time:	15. 06. 2019 19:34

#	Modifying user name:	WinNT
#	Modification time:	15. 06. 2019 19:34

#	Program:	/corina/corina34_cracker 3.40 0067  02.08.2006

@<TRIPOS>MOLECULE
ASD01815853
  52   57    0    0    0
SMALL
NO_CHARGES


@<TRIPOS>ATOM
   1 C1            -0.0294     1.3902    -0.0385 C.ar    
   2 C2            -0.0146     0.0023    -0.0604 C.ar    
   3 C3            -1.2042    -0.7003    -0.0617 C.ar    
   4 C4            -2.4096    -0.0234    -0.0417 C.ar    
   5 C5            -2.4300     1.3594    -0.0199 C.ar    
   6 C6            -1.2435     2.0692    -0.0127 C.ar    
   7 F7            -1.2631     3.4199     0.0091 F       
   8 N8             1.1747     2.1051    -0.0367 N.am    
   9 C9             1.8788     2.4330    -1.1420 C.2     
  10 N10            1.8156     2.5857     1.1085 N.2     
  11 C11            2.9184     3.2141     0.7979 C.2     
  12 C12            3.0488     3.1675    -0.6759 C.2     
  13 O13            1.5929     2.1673    -2.2988 O.2     
  14 C14            3.9721     3.9055     1.5501 C.2     
  15 C15            4.9937     4.4569     0.8718 C.2     
  16 N16            5.0604     4.3790    -0.4974 N.pl3   
  17 C17            4.1388     3.7677    -1.2548 C.2     
  18 C18            6.2026     5.0034    -1.1695 C.3     
  19 C19            5.8208     6.3875    -1.6275 C.ar    
  20 C20            5.9277     7.4563    -0.7567 C.ar    
  21 C21            5.5781     8.7259    -1.1733 C.ar    
  22 C22            5.1194     8.9284    -2.4680 C.ar    
  23 C23            5.0137     7.8533    -3.3401 C.ar    
  24 C24            5.3697     6.5869    -2.9193 C.ar    
  25 N25            4.7634    10.2157    -2.8937 N.pl3   
  26 C26            4.3047    10.5496    -4.1212 C.2     
  27 C27            4.1356     4.1280     3.0369 C.3     
  28 C28            5.6179     4.5196     3.2202 C.3     
  29 C29            5.9589     5.1173     1.8387 C.3     
  30 C30            4.0784    11.8837    -4.1273 C.2     
  31 C31            4.4093    12.3826    -2.8626 C.2     
  32 N32            4.8141    11.3831    -2.1210 N.2     
  33 H33            0.9262    -0.5279    -0.0767 H       
  34 H34           -1.1925    -1.7801    -0.0787 H       
  35 H35           -3.3376    -0.5758    -0.0436 H       
  36 H36           -3.3733     1.8850    -0.0044 H       
  37 H37            4.2567     3.7441    -2.3281 H       
  38 H38            7.0411     5.0685    -0.4761 H       
  39 H39            6.4901     4.4018    -2.0318 H       
  40 H40            6.2845     7.2982     0.2503 H       
  41 H41            5.6610     9.5602    -0.4926 H       
  42 H42            4.6569     8.0077    -4.3477 H       
  43 H43            5.2877     5.7502    -3.5972 H       
  44 H44            4.1478     9.8731    -4.9483 H       
  45 H45            3.4858     4.9361     3.3729 H       
  46 H46            3.9153     3.2112     3.5838 H       
  47 H47            5.7298     5.2660     4.0066 H       
  48 H48            6.2304     3.6420     3.4274 H       
  49 H49            6.9876     4.8803     1.5674 H       
  50 H50            5.8079     6.1968     1.8458 H       
  51 H51            3.7078    12.4615    -4.9611 H       
  52 H52            4.3385    13.4141    -2.5507 H       
@<TRIPOS>BOND
   1    1    2 ar
   2    1    8 1
   3    1    6 ar
   4    2    3 ar
   5    2   33 1
   6    3    4 ar
   7    3   34 1
   8    4    5 ar
   9    4   35 1
  10    5    6 ar
  11    5   36 1
  12    6    7 1
  13    8    9 am
  14    8   10 1
  15    9   13 2
  16    9   12 1
  17   10   11 2
  18   11   12 1
  19   11   14 1
  20   12   17 2
  21   14   15 2
  22   14   27 1
  23   15   16 1
  24   15   29 1
  25   16   17 1
  26   16   18 1
  27   17   37 1
  28   18   19 1
  29   18   38 1
  30   18   39 1
  31   19   20 ar
  32   19   24 ar
  33   20   21 ar
  34   20   40 1
  35   21   22 ar
  36   21   41 1
  37   22   23 ar
  38   22   25 1
  39   23   24 ar
  40   23   42 1
  41   24   43 1
  42   25   26 1
  43   25   32 1
  44   26   30 2
  45   26   44 1
  46   27   28 1
  47   27   45 1
  48   27   46 1
  49   28   29 1
  50   28   47 1
  51   28   48 1
  52   29   49 1
  53   29   50 1
  54   30   31 1
  55   30   51 1
  56   31   32 2
  57   31   52 1

#	End of record

