#	Name: ASD01150063
#	Creating user name:	WinNT
#	Creation time:	15. 06. 2019 19:03

#	Modifying user name:	WinNT
#	Modification time:	15. 06. 2019 19:03

#	Program:	/corina/corina34_cracker 3.40 0067  02.08.2006

@<TRIPOS>MOLECULE
ASD01150063
  37   39    0    0    0
SMALL
NO_CHARGES


@<TRIPOS>ATOM
   1 C1            -0.0168     1.3850     0.0097 C.2     
   2 C2             0.0021    -0.0041     0.0020 C.2     
   3 N3            -1.2678    -0.4172     0.0119 N.2     
   4 C4            -2.0703     0.6165     0.0251 C.2     
   5 N5            -1.3471     1.7532     0.0298 N.pl3   
   6 C6            -1.8728     3.1206     0.0440 C.3     
   7 C7            -3.5756     0.5459     0.0391 C.3     
   8 C8            -4.0713     0.5149     1.4862 C.3     
   9 C9             1.2064     2.0895     0.0018 C.2     
  10 N10            2.3649     1.3979    -0.0130 N.am    
  11 C11            2.3684     0.0537    -0.0207 C.2     
  12 N12            1.2244    -0.6561    -0.0127 N.am    
  13 O13            3.4318    -0.5360    -0.0348 O.2     
  14 C14            3.6379     2.1228    -0.0213 C.3     
  15 O15            1.2160     3.3074     0.0078 O.2     
  16 C16            4.0880     2.3638     1.3966 C.ar    
  17 C17            4.8867     1.4338     2.0352 C.ar    
  18 C18            5.3006     1.6539     3.3358 C.ar    
  19 C19            4.9156     2.8050     3.9987 C.ar    
  20 C20            4.1154     3.7368     3.3588 C.ar    
  21 C21            3.7065     3.5175     2.0559 C.ar    
  22 Cl22           5.4346     3.0816     5.6320 Cl      
  23 Cl23           3.6308     5.1820     4.1896 Cl      
  24 H24           -1.9973     3.4513     1.0751 H       
  25 H25           -1.1755     3.7833    -0.4685 H       
  26 H26           -2.8368     3.1445    -0.4642 H       
  27 H27           -3.9851     1.4204    -0.4666 H       
  28 H28           -3.9018    -0.3576    -0.4762 H       
  29 H29           -5.1601     0.4638     1.4963 H       
  30 H30           -3.6619    -0.3597     1.9918 H       
  31 H31           -3.7452     1.4183     2.0014 H       
  32 H32            1.2561    -1.6256    -0.0186 H       
  33 H33            4.3891     1.5320    -0.5455 H       
  34 H34            3.5084     3.0787    -0.5288 H       
  35 H35            5.1872     0.5346     1.5180 H       
  36 H36            5.9243     0.9267     3.8343 H       
  37 H37            3.0825     4.2437     1.5563 H       
@<TRIPOS>BOND
   1    1    2 2
   2    1    9 1
   3    1    5 1
   4    2    3 1
   5    2   12 1
   6    3    4 2
   7    4    5 1
   8    4    7 1
   9    5    6 1
  10    6   24 1
  11    6   25 1
  12    6   26 1
  13    7    8 1
  14    7   27 1
  15    7   28 1
  16    8   29 1
  17    8   30 1
  18    8   31 1
  19    9   10 am
  20    9   15 2
  21   10   11 am
  22   10   14 1
  23   11   12 am
  24   11   13 2
  25   12   32 1
  26   14   16 1
  27   14   33 1
  28   14   34 1
  29   16   17 ar
  30   16   21 ar
  31   17   18 ar
  32   17   35 1
  33   18   19 ar
  34   18   36 1
  35   19   20 ar
  36   19   22 1
  37   20   21 ar
  38   20   23 1
  39   21   37 1

#	End of record

