#	Name: ASD01810395
#	Creating user name:	WinNT
#	Creation time:	15. 06. 2019 19:24

#	Modifying user name:	WinNT
#	Modification time:	15. 06. 2019 19:24

#	Program:	/corina/corina34_cracker 3.40 0067  02.08.2006

@<TRIPOS>MOLECULE
ASD01810395
  40   44    0    0    0
SMALL
NO_CHARGES


@<TRIPOS>ATOM
   1 N1            -0.0161     1.3385     0.0094 N.pl3   
   2 C2             0.0021    -0.0041     0.0020 C.2     
   3 C3             1.1815    -0.7100    -0.0131 C.2     
   4 C4             2.4644     0.0274    -0.0214 C.2     
   5 C5             2.4010     1.5023    -0.0125 C.ar    
   6 N6             3.5022     2.2388    -0.0187 N.ar    
   7 C7             3.4499     3.5551    -0.0105 C.ar    
   8 C8             2.2364     4.2224     0.0051 C.ar    
   9 C9             1.0566     3.4978     0.0122 C.ar    
  10 C10            1.1334     2.1070     0.0026 C.ar    
  11 N11            2.8775    -2.1471    -0.0378 N.am    
  12 N12            3.4195    -0.8580    -0.0358 N.2     
  13 C13            1.5298    -2.0826    -0.0243 C.2     
  14 O14            0.7577    -3.0276    -0.0215 O.2     
  15 C15           -1.3129     2.0201     0.0192 C.3     
  16 C16           -1.7509     2.2461     1.4433 C.ar    
  17 C17           -1.3939     3.4103     2.0985 C.ar    
  18 C18           -1.7938     3.6202     3.4037 C.ar    
  19 C19           -2.5554     2.6612     4.0577 C.ar    
  20 C20           -2.9127     1.4935     3.3971 C.ar    
  21 C21           -2.5138     1.2914     2.0903 C.ar    
  22 N22           -2.9625     2.8712     5.3826 N.pl3   
  23 N23           -2.6748     3.9971     6.1649 N.2     
  24 C24           -3.2235     3.8292     7.3411 C.2     
  25 C25           -3.8778     2.5925     7.3467 C.2     
  26 C26           -3.7073     2.0254     6.1299 C.2     
  27 H27           -0.9338    -0.5431     0.0085 H       
  28 H28            4.3684     4.1233    -0.0156 H       
  29 H29            2.2105     5.3020     0.0121 H       
  30 H30            0.0999     3.9988     0.0247 H       
  31 H31            3.3947    -2.9677    -0.0472 H       
  32 H32           -1.2228     2.9797    -0.4899 H       
  33 H33           -2.0510     1.4041    -0.4946 H       
  34 H34           -0.8014     4.1559     1.5892 H       
  35 H35           -1.5140     4.5294     3.9152 H       
  36 H36           -3.5051     0.7457     3.9032 H       
  37 H37           -2.7946     0.3849     1.5746 H       
  38 H38           -3.1784     4.5252     8.1657 H       
  39 H39           -4.4259     2.1674     8.1745 H       
  40 H40           -4.0947     1.0683     5.8132 H       
@<TRIPOS>BOND
   1    1    2 1
   2    1   10 1
   3    1   15 1
   4    2    3 2
   5    2   27 1
   6    3    4 1
   7    3   13 1
   8    4    5 1
   9    4   12 2
  10    5    6 ar
  11    5   10 ar
  12    6    7 ar
  13    7    8 ar
  14    7   28 1
  15    8    9 ar
  16    8   29 1
  17    9   10 ar
  18    9   30 1
  19   11   12 1
  20   11   13 am
  21   11   31 1
  22   13   14 2
  23   15   16 1
  24   15   32 1
  25   15   33 1
  26   16   17 ar
  27   16   21 ar
  28   17   18 ar
  29   17   34 1
  30   18   19 ar
  31   18   35 1
  32   19   20 ar
  33   19   22 1
  34   20   21 ar
  35   20   36 1
  36   21   37 1
  37   22   23 1
  38   22   26 1
  39   23   24 2
  40   24   25 1
  41   24   38 1
  42   25   26 2
  43   25   39 1
  44   26   40 1

#	End of record

