#	Name: ASD05430298
#	Creating user name:	WinNT
#	Creation time:	15. 06. 2019 21:00

#	Modifying user name:	WinNT
#	Modification time:	15. 06. 2019 21:00

#	Program:	/corina/corina34_cracker 3.40 0067  02.08.2006

@<TRIPOS>MOLECULE
ASD05430298
  71   76    0    0    0
SMALL
NO_CHARGES


@<TRIPOS>ATOM
   1 C1             0.8368     0.7259    -1.1701 C.ar    
   2 C2            -0.2404     1.4446    -0.6526 C.ar    
   3 C3            -0.0247     2.6504     0.0022 C.ar    
   4 C4             1.2547     3.1422     0.1435 C.ar    
   5 C5             2.3399     2.4266    -0.3726 C.ar    
   6 C6             2.1228     1.2129    -1.0317 C.ar    
   7 C7             4.5479     0.6036     0.1093 C.3     
   8 C8             4.7407     2.1016    -0.0724 C.2     
   9 C9             3.7074     2.9507    -0.2230 C.2     
  10 C10            5.4948     0.1203     1.2050 C.3     
  11 C11            6.9573     0.3376     0.8253 C.3     
  12 N12            7.1575     1.7314     0.4379 N.pl3   
  13 C13            6.1497     2.5558    -0.0707 C.2     
  14 C14            8.3664     2.5538     0.5020 C.3     
  15 O15            8.0611     3.6587    -0.3748 O.3     
  16 N16            6.6464     3.6607    -0.5133 N.2     
  17 C17            8.6044     3.0408     1.9082 C.ar    
  18 C18            9.5778     1.7742    -0.0134 C.3     
  19 N19           -1.5437     0.9492    -0.7939 N.pl3   
  20 C20           -2.4767     0.8145     0.2015 C.2     
  21 C21           -3.5845     0.3037    -0.3689 C.2     
  22 N22           -3.3403     0.1294    -1.6761 N.2     
  23 C23           -2.1231     0.5174    -1.9441 C.2     
  24 C24           -4.8753    -0.0174     0.3395 C.3     
  25 C25            9.1437     4.2953     2.1232 C.ar    
  26 C26            9.3621     4.7419     3.4130 C.ar    
  27 C27            9.0409     3.9342     4.4878 C.ar    
  28 C28            8.5008     2.6800     4.2729 C.ar    
  29 C29            8.2783     2.2351     2.9831 C.ar    
  30 C30            1.7718    -1.1391    -2.3112 C.3     
  31 O31            0.6225    -0.4565    -1.8059 O.3     
  32 C32            5.1781     0.8267     2.5320 C.3     
  33 O33            4.7386    -0.1846     3.4563 O.3     
  34 C34            5.3399    -1.4292     3.0375 C.3     
  35 C35            5.2448    -1.3761     1.4904 C.3     
  36 O36           10.7599     2.5562     0.1682 O.3     
  37 S37            9.3280     4.5186     6.1767 Du      
  38 F38            7.8715     3.9855     6.6087 F       
  39 F39           10.7844     5.0517     5.7446 F       
  40 F40            9.9649     3.0911     6.5623 F       
  41 F41            8.6910     5.9461     5.7910 F       
  42 F42            9.5834     5.0384     7.6789 F       
  43 H43           -0.8617     3.2040     0.4012 H       
  44 H44            1.4194     4.0804     0.6525 H       
  45 H45            2.9581     0.6570    -1.4314 H       
  46 H46            3.5174     0.3999     0.4002 H       
  47 H47            4.7759     0.0894    -0.8243 H       
  48 H48            3.8815     4.0165    -0.2342 H       
  49 H49            7.5931     0.1028     1.6789 H       
  50 H50            7.2162    -0.3126    -0.0104 H       
  51 H51            9.6713     0.8402     0.5407 H       
  52 H52            9.4455     1.5563    -1.0732 H       
  53 H53           -2.3477     1.0686     1.2432 H       
  54 H54           -1.6532     0.4931    -2.9162 H       
  55 H55           -5.5272     0.8559     0.3205 H       
  56 H56           -5.3682    -0.8497    -0.1630 H       
  57 H57           -4.6642    -0.2908     1.3733 H       
  58 H58            9.3947     4.9263     1.2834 H       
  59 H59            9.7841     5.7218     3.5810 H       
  60 H60            8.2501     2.0489     5.1126 H       
  61 H61            7.8564     1.2553     2.8151 H       
  62 H62            1.4610    -2.0657    -2.7939 H       
  63 H63            2.2815    -0.5048    -3.0364 H       
  64 H64            2.4495    -1.3675    -1.4886 H       
  65 H65            6.0737     1.3156     2.9151 H       
  66 H66            4.3868     1.5611     2.3817 H       
  67 H67            6.3810    -1.4787     3.3564 H       
  68 H68            4.7774    -2.2774     3.4277 H       
  69 H69            4.2537    -1.6770     1.1507 H       
  70 H70            6.0164    -1.9943     1.0314 H       
  71 H71           11.5688     2.1231    -0.1372 H       
@<TRIPOS>BOND
   1    1    2 ar
   2    1    6 ar
   3    1   31 1
   4    2    3 ar
   5    2   19 1
   6    3    4 ar
   7    3   43 1
   8    4    5 ar
   9    4   44 1
  10    5    6 ar
  11    5    9 1
  12    6   45 1
  13    7    8 1
  14    7   10 1
  15    7   46 1
  16    7   47 1
  17    8    9 2
  18    8   13 1
  19    9   48 1
  20   10   11 1
  21   10   32 1
  22   10   35 1
  23   11   12 1
  24   11   49 1
  25   11   50 1
  26   12   13 1
  27   12   14 1
  28   13   16 2
  29   14   15 1
  30   14   17 1
  31   14   18 1
  32   15   16 1
  33   17   25 ar
  34   17   29 ar
  35   18   36 1
  36   18   51 1
  37   18   52 1
  38   19   20 1
  39   19   23 1
  40   20   21 2
  41   20   53 1
  42   21   22 1
  43   21   24 1
  44   22   23 2
  45   23   54 1
  46   24   55 1
  47   24   56 1
  48   24   57 1
  49   25   26 ar
  50   25   58 1
  51   26   27 ar
  52   26   59 1
  53   27   28 ar
  54   27   37 1
  55   28   29 ar
  56   28   60 1
  57   29   61 1
  58   30   31 1
  59   30   62 1
  60   30   63 1
  61   30   64 1
  62   32   33 1
  63   32   65 1
  64   32   66 1
  65   33   34 1
  66   34   35 1
  67   34   67 1
  68   34   68 1
  69   35   69 1
  70   35   70 1
  71   36   71 1
  72   37   38 1
  73   37   39 1
  74   37   40 1
  75   37   41 1
  76   37   42 1

#	End of record

