#	Name: ASD00840155
#	Creating user name:	WinNT
#	Creation time:	15. 06. 2019 18:37

#	Modifying user name:	WinNT
#	Modification time:	15. 06. 2019 18:37

#	Program:	/corina/corina34_cracker 3.40 0067  02.08.2006

@<TRIPOS>MOLECULE
ASD00840155
  61   65    0    0    0
SMALL
NO_CHARGES


@<TRIPOS>ATOM
   1 N1            -0.1829     1.2676     0.4273 N.am    
   2 C2            -0.1441    -0.0436     0.1380 C.2     
   3 C3             1.3115    -0.4591     0.1415 C.3     
   4 C4             2.0564     0.8138     0.4740 C.ar    
   5 C5             3.3906     1.0984     0.6253 C.ar    
   6 C6             3.7927     2.4004     0.9416 C.ar    
   7 C7             2.8255     3.4004     1.1005 C.ar    
   8 C8             1.4889     3.1014     0.9458 C.ar    
   9 C9             1.0898     1.8028     0.6304 C.ar    
  10 C10           -1.3207     1.9856     0.5067 C.2     
  11 O11           -1.2743     3.1697     0.7733 O.2     
  12 O12           -2.5088     1.3904     0.2906 O.3     
  13 O13            1.5501    -1.4683     1.1578 O.3     
  14 C14            0.8833    -2.6303     1.0331 C.2     
  15 O15            0.1229    -2.7970     0.1011 O.2     
  16 O16            1.0590    -3.6077     1.9413 O.3     
  17 C17            0.2797    -4.7144     1.8155 C.ar    
  18 C18            0.5831    -5.6727     0.8595 C.ar    
  19 C19           -0.2104    -6.7965     0.7335 C.ar    
  20 C20           -1.3065    -6.9664     1.5591 C.ar    
  21 C21           -1.6110    -6.0126     2.5127 C.ar    
  22 C22           -0.8170    -4.8901     2.6467 C.ar    
  23 O23           -1.0964    -0.7602    -0.0839 O.2     
  24 F24            3.2032     4.6610     1.4064 F       
  25 C25            1.6004    -0.1576    -2.3380 C.ar    
  26 C26            1.7182    -0.9694    -1.2169 C.ar    
  27 C27            2.2145    -2.2527    -1.3641 C.ar    
  28 C28            2.5771    -2.6808    -2.6340 C.ar    
  29 C29            2.4330    -1.8201    -3.7036 C.ar    
  30 N30            1.9566    -0.6015    -3.5318 N.ar    
  31 O31            1.1100     1.1007    -2.2079 O.3     
  32 C32            1.0135     1.8857    -3.3981 C.3     
  33 C33            0.4435     3.2636    -3.0554 C.3     
  34 C34            5.1820     2.7079     1.1022 C.1     
  35 N35            6.2842     2.9519     1.2296 N.1     
  36 C36           -3.6214     2.1508     0.4683 C.ar    
  37 C37           -3.9916     3.0764    -0.4964 C.ar    
  38 C38           -5.1231     3.8477    -0.3137 C.ar    
  39 C39           -5.8863     3.6976     0.8294 C.ar    
  40 C40           -5.5194     2.7757     1.7924 C.ar    
  41 C41           -4.3917     1.9984     1.6119 C.ar    
  42 H42            4.1281     0.3192     0.5009 H       
  43 H43            0.7470     3.8765     1.0694 H       
  44 H44            1.4388    -5.5402     0.2140 H       
  45 H45            0.0254    -7.5429    -0.0106 H       
  46 H46           -1.9260    -7.8453     1.4586 H       
  47 H47           -2.4679    -6.1474     3.1561 H       
  48 H48           -1.0526    -4.1476     3.3947 H       
  49 H49            2.3176    -2.9063    -0.5105 H       
  50 H50            2.9682    -3.6763    -2.7834 H       
  51 H51            2.7139    -2.1480    -4.6935 H       
  52 H52            2.0039     2.0015    -3.8382 H       
  53 H53            0.3556     1.3871    -4.1098 H       
  54 H54           -0.5469     3.1479    -2.6152 H       
  55 H55            1.1015     3.7622    -2.3436 H       
  56 H56            0.3699     3.8624    -3.9632 H       
  57 H57           -3.3956     3.1942    -1.3893 H       
  58 H58           -5.4116     4.5687    -1.0643 H       
  59 H59           -6.7703     4.3018     0.9706 H       
  60 H60           -6.1171     2.6604     2.6844 H       
  61 H61           -4.1080     1.2753     2.3623 H       
@<TRIPOS>BOND
   1    1    2 am
   2    1    9 1
   3    1   10 am
   4    2    3 1
   5    2   23 2
   6    3    4 1
   7    3   13 1
   8    3   26 1
   9    4    5 ar
  10    4    9 ar
  11    5    6 ar
  12    5   42 1
  13    6    7 ar
  14    6   34 1
  15    7    8 ar
  16    7   24 1
  17    8    9 ar
  18    8   43 1
  19   10   11 2
  20   10   12 1
  21   12   36 1
  22   13   14 1
  23   14   15 2
  24   14   16 1
  25   16   17 1
  26   17   18 ar
  27   17   22 ar
  28   18   19 ar
  29   18   44 1
  30   19   20 ar
  31   19   45 1
  32   20   21 ar
  33   20   46 1
  34   21   22 ar
  35   21   47 1
  36   22   48 1
  37   25   26 ar
  38   25   30 ar
  39   25   31 1
  40   26   27 ar
  41   27   28 ar
  42   27   49 1
  43   28   29 ar
  44   28   50 1
  45   29   30 ar
  46   29   51 1
  47   31   32 1
  48   32   33 1
  49   32   52 1
  50   32   53 1
  51   33   54 1
  52   33   55 1
  53   33   56 1
  54   34   35 3
  55   36   37 ar
  56   36   41 ar
  57   37   38 ar
  58   37   57 1
  59   38   39 ar
  60   38   58 1
  61   39   40 ar
  62   39   59 1
  63   40   41 ar
  64   40   60 1
  65   41   61 1

#	End of record

