#	Name: ASD01150295
#	Creating user name:	WinNT
#	Creation time:	15. 06. 2019 19:04

#	Modifying user name:	WinNT
#	Modification time:	15. 06. 2019 19:04

#	Program:	/corina/corina34_cracker 3.40 0067  02.08.2006

@<TRIPOS>MOLECULE
ASD01150295
  69   71    0    0    0
SMALL
NO_CHARGES


@<TRIPOS>ATOM
   1 C1            -0.0158     1.3123     0.0093 C.2     
   2 N2             0.0021    -0.0041     0.0020 N.2     
   3 C3            -1.2464    -0.4792     0.0122 C.2     
   4 C4            -2.1134     0.6064     0.0268 C.2     
   5 N5            -1.3045     1.7452     0.0298 N.pl3   
   6 N6             1.0958     2.1231     0.0030 N.3     
   7 C7             2.3292     1.3253    -0.0137 C.3     
   8 C8             1.0586     3.0586    -1.1289 C.3     
   9 C9            -1.7378     3.0773     0.0439 C.ar    
  10 N10           -1.6126    -1.8197     0.0087 N.am    
  11 C11           -3.5222     0.5667     0.0403 C.2     
  12 O12           -4.2300     1.7168     0.0533 O.3     
  13 O13           -4.1012    -0.5046     0.0403 O.2     
  14 C14           -5.6543     1.6018     0.0665 C.3     
  15 C15           -6.0925     0.8353     1.3160 C.3     
  16 C16           -6.2786     2.9986     0.0800 C.3     
  17 C17           -6.1168     0.8485    -1.1823 C.3     
  18 C18           -1.4617     3.8871     1.1375 C.ar    
  19 C19           -1.8903     5.2000     1.1485 C.ar    
  20 C20           -2.5937     5.7082     0.0718 C.ar    
  21 C21           -2.8707     4.9041    -1.0185 C.ar    
  22 C22           -2.4394     3.5921    -1.0381 C.ar    
  23 C23           -0.6643    -2.7773    -0.0056 C.2     
  24 C24           -1.0531    -4.2007    -0.0092 C.ar    
  25 O25            0.5116    -2.4682    -0.0154 O.2     
  26 C26           -0.0713    -5.1952    -0.0240 C.ar    
  27 C27           -0.4383    -6.5223    -0.0275 C.ar    
  28 C28           -1.7832    -6.8735    -0.0167 C.ar    
  29 C29           -2.7628    -5.8874    -0.0024 C.ar    
  30 C30           -2.4041    -4.5580     0.0079 C.ar    
  31 O31           -2.1407    -8.1826    -0.0206 O.3     
  32 C32           -3.5399    -8.4730    -0.0089 C.3     
  33 C33           -3.7462    -9.9890    -0.0154 C.3     
  34 C34           -5.2442   -10.2999    -0.0029 C.3     
  35 C35           -5.4505   -11.8159    -0.0093 C.3     
  36 H36            2.3464     0.7016    -0.9074 H       
  37 H37            3.1923     1.9909    -0.0183 H       
  38 H38            2.3639     0.6915     0.8724 H       
  39 H39            0.1696     3.6849    -1.0537 H       
  40 H40            1.9487     3.6875    -1.1100 H       
  41 H41            1.0299     2.4977    -2.0631 H       
  42 H42           -2.5507    -2.0663     0.0166 H       
  43 H43           -5.7630     1.3719     2.2057 H       
  44 H44           -7.1789     0.7476     1.3261 H       
  45 H45           -5.6478    -0.1598     1.3064 H       
  46 H46           -5.9664     3.5447    -0.8102 H       
  47 H47           -7.3650     2.9109     0.0901 H       
  48 H48           -5.9491     3.5353     0.9697 H       
  49 H49           -5.6720    -0.1466    -1.1919 H       
  50 H50           -7.2032     0.7608    -1.1722 H       
  51 H51           -5.8046     1.3946    -2.0725 H       
  52 H52           -0.9126     3.4907     1.9788 H       
  53 H53           -1.6761     5.8303     1.9989 H       
  54 H54           -2.9278     6.7352     0.0827 H       
  55 H55           -3.4209     5.3036    -1.8576 H       
  56 H56           -2.6557     2.9646    -1.8901 H       
  57 H57            0.9739    -4.9231    -0.0332 H       
  58 H58            0.3198    -7.2914    -0.0389 H       
  59 H59           -3.8066    -6.1644     0.0052 H       
  60 H60           -3.1658    -3.7925     0.0193 H       
  61 H61           -3.9916    -8.0486     0.8878 H       
  62 H62           -4.0084    -8.0388    -0.8921 H       
  63 H63           -3.2945   -10.4133    -0.9120 H       
  64 H64           -3.2776   -10.4232     0.8678 H       
  65 H65           -5.6959    -9.8756     0.8938 H       
  66 H66           -5.7128    -9.8657    -0.8861 H       
  67 H67           -4.9988   -12.2402    -0.9060 H       
  68 H68           -4.9820   -12.2501     0.8738 H       
  69 H69           -6.5177   -12.0374    -0.0005 H       
@<TRIPOS>BOND
   1    1    2 2
   2    1    6 1
   3    1    5 1
   4    2    3 1
   5    3    4 2
   6    3   10 1
   7    4    5 1
   8    4   11 1
   9    5    9 1
  10    6    7 1
  11    6    8 1
  12    7   36 1
  13    7   37 1
  14    7   38 1
  15    8   39 1
  16    8   40 1
  17    8   41 1
  18    9   18 ar
  19    9   22 ar
  20   10   23 am
  21   10   42 1
  22   11   12 1
  23   11   13 2
  24   12   14 1
  25   14   15 1
  26   14   16 1
  27   14   17 1
  28   15   43 1
  29   15   44 1
  30   15   45 1
  31   16   46 1
  32   16   47 1
  33   16   48 1
  34   17   49 1
  35   17   50 1
  36   17   51 1
  37   18   19 ar
  38   18   52 1
  39   19   20 ar
  40   19   53 1
  41   20   21 ar
  42   20   54 1
  43   21   22 ar
  44   21   55 1
  45   22   56 1
  46   23   24 1
  47   23   25 2
  48   24   26 ar
  49   24   30 ar
  50   26   27 ar
  51   26   57 1
  52   27   28 ar
  53   27   58 1
  54   28   29 ar
  55   28   31 1
  56   29   30 ar
  57   29   59 1
  58   30   60 1
  59   31   32 1
  60   32   33 1
  61   32   61 1
  62   32   62 1
  63   33   34 1
  64   33   63 1
  65   33   64 1
  66   34   35 1
  67   34   65 1
  68   34   66 1
  69   35   67 1
  70   35   68 1
  71   35   69 1

#	End of record

