#	Name: ASD02508128
#	Creating user name:	WinNT
#	Creation time:	15. 06. 2019 20:23

#	Modifying user name:	WinNT
#	Modification time:	15. 06. 2019 20:23

#	Program:	/corina/corina34_cracker 3.40 0067  02.08.2006

@<TRIPOS>MOLECULE
ASD02508128
  36   38    0    0    0
SMALL
NO_CHARGES


@<TRIPOS>ATOM
   1 C1             0.7979     1.5303    -1.2506 C.ar    
   2 C2             0.6628     0.1856    -0.9428 C.ar    
   3 C3             2.0480     2.1431    -1.1682 C.ar    
   4 C4             3.1523     1.4020    -0.7773 C.ar    
   5 C5             3.0100     0.0626    -0.4717 C.ar    
   6 C6             1.7690    -0.5448    -0.5546 C.ar    
   7 N7            -0.1004     2.5121    -1.6679 N.am    
   8 C8             0.5931     3.6579    -1.8190 C.2     
   9 O9             1.8839     3.4416    -1.5210 O.3     
  10 S10            4.4150    -0.8776     0.0249 S.o2    
  11 N11            4.0767    -1.5144     1.5157 N.am    
  12 C12            4.2641    -0.7396     2.6669 C.ar    
  13 O13            0.1231     4.7215    -2.1744 O.2     
  14 C14           -1.5355     2.3310    -1.9002 C.3     
  15 O15            4.4993    -1.9771    -0.8713 O.2     
  16 O16            5.4726     0.0520     0.2163 O.2     
  17 C17            4.4878    -1.3557     3.8926 C.ar    
  18 C18            4.2327     0.6476     2.5859 C.ar    
  19 C19            4.4183     1.4095     3.7254 C.ar    
  20 C20            4.6349     0.7929     4.9439 C.ar    
  21 C21            4.6725    -0.5869     5.0276 C.ar    
  22 F22            4.5243    -2.7037     3.9754 F       
  23 C23            1.6241    -2.0068    -0.2188 C.3     
  24 F24            4.0216     1.2510     1.3957 F       
  25 H25           -0.3049    -0.2897    -1.0059 H       
  26 H26            4.1228     1.8713    -0.7121 H       
  27 H27            3.7486    -2.4241     1.5914 H       
  28 H28           -2.0808     2.5295    -0.9775 H       
  29 H29           -1.8682     3.0220    -2.6747 H       
  30 H30           -1.7252     1.3067    -2.2211 H       
  31 H31            4.3944     2.4875     3.6632 H       
  32 H32            4.7798     1.3904     5.8318 H       
  33 H33            4.8419    -1.0649     5.9811 H       
  34 H34            1.5287    -2.1239     0.8606 H       
  35 H35            0.7351    -2.4054    -0.7076 H       
  36 H36            2.5037    -2.5484    -0.5667 H       
@<TRIPOS>BOND
   1    1    2 ar
   2    1    3 ar
   3    1    7 1
   4    2    6 ar
   5    2   25 1
   6    3    4 ar
   7    3    9 1
   8    4    5 ar
   9    4   26 1
  10    5    6 ar
  11    5   10 1
  12    6   23 1
  13    7    8 am
  14    7   14 1
  15    8    9 1
  16    8   13 2
  17   10   11 am
  18   10   15 2
  19   10   16 2
  20   11   12 1
  21   11   27 1
  22   12   17 ar
  23   12   18 ar
  24   14   28 1
  25   14   29 1
  26   14   30 1
  27   17   22 1
  28   17   21 ar
  29   18   19 ar
  30   18   24 1
  31   19   20 ar
  32   19   31 1
  33   20   21 ar
  34   20   32 1
  35   21   33 1
  36   23   34 1
  37   23   35 1
  38   23   36 1

#	End of record

