#	Name: ASD01230043
#	Creating user name:	WinNT
#	Creation time:	15. 06. 2019 19:11

#	Modifying user name:	WinNT
#	Modification time:	15. 06. 2019 19:11

#	Program:	/corina/corina34_cracker 3.40 0067  02.08.2006

@<TRIPOS>MOLECULE
ASD01230043
  40   43    0    0    0
SMALL
NO_CHARGES


@<TRIPOS>ATOM
   1 C1            -0.0168     1.3846     0.0097 C.ar    
   2 C2             0.0021    -0.0041     0.0020 C.ar    
   3 S3             1.5094     2.2763    -0.0001 S.o2    
   4 N4             2.6789     1.1204     0.2814 N.am    
   5 C5             2.4765    -0.1788    -0.3914 C.3     
   6 N6             1.1904    -0.7290     0.0298 N.pl3   
   7 O7             1.7040     2.7418    -1.3285 O.2     
   8 O8             1.4935     3.1291     1.1364 O.2     
   9 C9             2.4764     0.0231    -1.9080 C.3     
  10 C10           -1.2070    -0.6969    -0.0103 C.ar    
  11 C11           -2.4029    -0.0070    -0.0055 C.ar    
  12 C12           -2.4095     1.3767     0.0122 C.ar    
  13 C13           -1.2128     2.0707     0.0190 C.ar    
  14 S14           -3.9384     2.2524     0.0247 S.o2    
  15 N15           -4.6973     1.9344    -1.4124 N.am    
  16 O16           -4.7343     1.6557     1.0395 O.2     
  17 O17           -3.6092     3.6347     0.0074 O.2     
  18 Cl18          -3.9040    -0.8788    -0.0222 Cl      
  19 C19            3.8356     0.6300    -2.3812 C.3     
  20 C20            4.8918    -0.2991    -1.7705 C.2     
  21 C21            4.8353    -1.4597    -2.3924 C.2     
  22 C22            3.7375    -1.3843    -3.4606 C.3     
  23 C23            2.4100    -1.3404    -2.6386 C.3     
  24 C24            3.8671     0.1282    -3.8712 C.3     
  25 H25            3.4448     1.2911     0.8516 H       
  26 H26            3.2766    -0.8641    -0.1115 H       
  27 H27            1.1630    -1.6460     0.3449 H       
  28 H28            1.6461     0.6622    -2.2083 H       
  29 H29           -1.2085    -1.7768    -0.0240 H       
  30 H30           -1.2154     3.1506     0.0333 H       
  31 H31           -5.6662     1.9305    -1.4588 H       
  32 H32           -4.1729     1.7519    -2.2078 H       
  33 H33            3.9734     1.6976    -2.2096 H       
  34 H34            5.5676    -0.0453    -0.9672 H       
  35 H35            5.4569    -2.3182    -2.1852 H       
  36 H36            3.7872    -2.1255    -4.2582 H       
  37 H37            2.3772    -2.1591    -1.9198 H       
  38 H38            1.5466    -1.3776    -3.3029 H       
  39 H39            3.0114     0.4790    -4.4481 H       
  40 H40            4.8136     0.3470    -4.3656 H       
@<TRIPOS>BOND
   1    1    2 ar
   2    1    3 1
   3    1   13 ar
   4    2   10 ar
   5    2    6 1
   6    3    4 am
   7    3    7 2
   8    3    8 2
   9    4    5 1
  10    4   25 1
  11    5    6 1
  12    5    9 1
  13    5   26 1
  14    6   27 1
  15    9   19 1
  16    9   23 1
  17    9   28 1
  18   10   11 ar
  19   10   29 1
  20   11   12 ar
  21   11   18 1
  22   12   13 ar
  23   12   14 1
  24   13   30 1
  25   14   15 am
  26   14   16 2
  27   14   17 2
  28   15   31 1
  29   15   32 1
  30   19   20 1
  31   19   24 1
  32   19   33 1
  33   20   21 2
  34   20   34 1
  35   21   22 1
  36   21   35 1
  37   22   23 1
  38   22   24 1
  39   22   36 1
  40   23   37 1
  41   23   38 1
  42   24   39 1
  43   24   40 1

#	End of record

