#	Name: ASD06020193
#	Creating user name:	WinNT
#	Creation time:	15. 06. 2019 21:04

#	Modifying user name:	WinNT
#	Modification time:	15. 06. 2019 21:04

#	Program:	/corina/corina34_cracker 3.40 0067  02.08.2006

@<TRIPOS>MOLECULE
ASD06020193
  25   27    0    0    0
SMALL
NO_CHARGES


@<TRIPOS>ATOM
   1 C1             0.7784     1.0067     1.7682 C.ar    
   2 C2             0.4730    -0.2454     1.2419 C.ar    
   3 C3             0.3714    -0.4060    -0.1474 C.ar    
   4 C4             0.5915     0.7427    -0.9455 C.ar    
   5 C5             0.8857     1.9275    -0.3447 C.ar    
   6 N6             0.9716     2.0374     0.9708 N.ar    
   7 S7             0.1598    -1.8014     2.0026 S.3     
   8 C8            -0.0798    -2.5368     0.4228 C.2     
   9 N9             0.0741    -1.6545    -0.5096 N.2     
  10 C10           -0.4099    -3.9597     0.1940 C.ar    
  11 C11            0.6105    -4.9059     0.0727 C.ar    
  12 C12            0.2946    -6.2331    -0.1409 C.ar    
  13 C13           -1.0286    -6.6254    -0.2352 C.ar    
  14 C14           -2.0434    -5.6927    -0.1158 C.ar    
  15 C15           -1.7421    -4.3643     0.1040 C.ar    
  16 N16           -2.8299    -3.3694     0.2374 N.pl3   
  17 O17           -3.9916    -3.7353     0.2508 O.2     
  18 O18           -2.5634    -2.1848     0.3338 O.2     
  19 Cl19           2.2714    -4.4145     0.1897 Cl      
  20 Cl20           0.8984     1.2129     3.4877 Cl      
  21 H21            0.5267     0.6789    -2.0216 H       
  22 H22            1.0527     2.8009    -0.9577 H       
  23 H23            1.0821    -6.9662    -0.2350 H       
  24 H24           -1.2705    -7.6645    -0.4030 H       
  25 H25           -3.0743    -6.0059    -0.1908 H       
@<TRIPOS>BOND
   1    1    2 ar
   2    1    6 ar
   3    1   20 1
   4    2    3 ar
   5    2    7 1
   6    3    4 ar
   7    3    9 1
   8    4    5 ar
   9    4   21 1
  10    5    6 ar
  11    5   22 1
  12    7    8 1
  13    8    9 2
  14    8   10 1
  15   10   11 ar
  16   10   15 ar
  17   11   12 ar
  18   11   19 1
  19   12   13 ar
  20   12   23 1
  21   13   14 ar
  22   13   24 1
  23   14   15 ar
  24   14   25 1
  25   15   16 1
  26   16   17 2
  27   16   18 2

#	End of record

