#	Name: ASD09116215
#	Creating user name:	WinNT
#	Creation time:	15. 06. 2019 21:21

#	Modifying user name:	WinNT
#	Modification time:	15. 06. 2019 21:21

#	Program:	/corina/corina34_cracker 3.40 0067  02.08.2006

@<TRIPOS>MOLECULE
ASD09116215
  76   82    0    0    0
SMALL
NO_CHARGES


@<TRIPOS>ATOM
   1 N1            -0.1407     1.7962    -0.7675 N.2     
   2 N2            -0.2012     0.6704    -1.6046 N.pl3   
   3 C3             1.1190     2.1543    -0.6981 C.2     
   4 N4             1.8518     1.3184    -1.4431 N.2     
   5 C5             1.0695     0.4169    -1.9969 C.2     
   6 N6             1.6151     3.2335     0.0338 N.pl3   
   7 C7             2.9869     3.4543     0.1045 C.ar    
   8 C8             3.4762     4.7516     0.2301 C.ar    
   9 C9             5.7193     3.8939     0.2457 C.ar    
  10 C10            5.2247     2.5919     0.1258 C.ar    
  11 C11            3.8673     2.3769     0.0552 C.ar    
  12 C12           -1.3452    -0.0461    -1.9612 C.ar    
  13 N13           -1.3676    -0.7392    -3.0898 N.ar    
  14 N14           -2.3984    -1.4072    -3.4691 N.ar    
  15 C15           -3.5074    -1.4404    -2.7478 C.ar    
  16 C16           -3.5686    -0.7559    -1.5306 C.ar    
  17 C17           -2.4644    -0.0366    -1.1250 C.ar    
  18 C18           -4.7147    -2.1647    -3.2084 C.ar    
  19 C19           -5.9453    -1.5063    -3.1877 C.ar    
  20 C20           -6.0050    -0.0675    -2.7533 C.3     
  21 C21           -5.9057     0.0605    -1.2356 C.3     
  22 C22           -4.8070    -0.8460    -0.6871 C.3     
  23 C23           -4.6368    -3.4801    -3.6524 C.ar    
  24 C24           -5.7849    -4.1354    -4.0536 C.ar    
  25 C25           -7.0055    -3.4862    -4.0118 C.ar    
  26 C26           -7.0860    -2.1740    -3.5787 C.ar    
  27 N27            1.4736    -0.6081    -2.8310 N.pl3   
  28 C28            4.8325     4.9732     0.3003 C.ar    
  29 C29            7.1739     4.1279     0.3220 C.2     
  30 C30            6.9111     5.9961    -1.2380 C.3     
  31 N31            7.7400     5.1000    -0.4203 N.am    
  32 O32            7.8621     3.4437     1.0547 O.2     
  33 C33            7.4296     5.9690    -2.6792 C.3     
  34 C34            8.9212     6.3111    -2.6870 C.3     
  35 C35            9.6905     5.2649    -1.8772 C.3     
  36 C36            9.1976     5.2840    -0.4269 C.3     
  37 N37            9.4144     6.3186    -4.0707 N.3     
  38 C38            8.7694     7.3870    -4.8558 C.3     
  39 C39            9.8934     8.2779    -5.4255 C.3     
  40 C40           11.1285     7.3392    -5.4032 C.3     
  41 C41           10.8781     6.5233    -4.1105 C.3     
  42 H42            1.0036     3.8299     0.4934 H       
  43 H43            2.7905     5.5850     0.2722 H       
  44 H44            5.9071     1.7556     0.0882 H       
  45 H45            3.4846     1.3713    -0.0382 H       
  46 H46           -2.4676     0.5204    -0.1996 H       
  47 H47           -5.1802     0.4779    -3.2119 H       
  48 H48           -6.9474     0.3668    -3.0869 H       
  49 H49           -5.6799     1.0950    -0.9768 H       
  50 H50           -6.8592    -0.2205    -0.7887 H       
  51 H51           -5.1623    -1.8764    -0.6809 H       
  52 H52           -4.5687    -0.5437     0.3327 H       
  53 H53           -3.6836    -3.9868    -3.6836 H       
  54 H54           -5.7292    -5.1565    -4.4009 H       
  55 H55           -7.9009    -4.0061    -4.3189 H       
  56 H56           -8.0424    -1.6733    -3.5474 H       
  57 H57            2.4118    -0.7092    -3.0557 H       
  58 H58            0.8192    -1.2265    -3.1917 H       
  59 H59            5.2115     5.9799     0.3970 H       
  60 H60            5.8753     5.6574    -1.2158 H       
  61 H61            6.9741     7.0112    -0.8460 H       
  62 H62            7.2822     4.9745    -3.1002 H       
  63 H63            6.8852     6.7013    -3.2755 H       
  64 H64            9.0704     7.2955    -2.2433 H       
  65 H65            9.5218     4.2770    -2.3058 H       
  66 H66           10.7554     5.4961    -1.9026 H       
  67 H67            9.4472     6.2411     0.0313 H       
  68 H68            9.6705     4.4754     0.1305 H       
  69 H69            8.1924     6.9512    -5.6714 H       
  70 H70            8.1179     7.9783    -4.2123 H       
  71 H71            9.6618     8.5858    -6.4451 H       
  72 H72           10.0578     9.1462    -4.7874 H       
  73 H73           11.1412     6.6898    -6.2785 H       
  74 H74           12.0530     7.9120    -5.3304 H       
  75 H75           11.2063     7.0863    -3.2368 H       
  76 H76           11.3941     5.5645    -4.1609 H       
@<TRIPOS>BOND
   1    1    2 1
   2    1    3 2
   3    2   12 1
   4    2    5 1
   5    3    4 1
   6    3    6 1
   7    4    5 2
   8    5   27 1
   9    6    7 1
  10    6   42 1
  11    7    8 ar
  12    7   11 ar
  13    8   28 ar
  14    8   43 1
  15    9   10 ar
  16    9   29 1
  17    9   28 ar
  18   10   11 ar
  19   10   44 1
  20   11   45 1
  21   12   13 ar
  22   12   17 ar
  23   13   14 ar
  24   14   15 ar
  25   15   16 ar
  26   15   18 1
  27   16   17 ar
  28   16   22 1
  29   17   46 1
  30   18   19 ar
  31   18   23 ar
  32   19   20 1
  33   19   26 ar
  34   20   21 1
  35   20   47 1
  36   20   48 1
  37   21   22 1
  38   21   49 1
  39   21   50 1
  40   22   51 1
  41   22   52 1
  42   23   24 ar
  43   23   53 1
  44   24   25 ar
  45   24   54 1
  46   25   26 ar
  47   25   55 1
  48   26   56 1
  49   27   57 1
  50   27   58 1
  51   28   59 1
  52   29   32 2
  53   29   31 am
  54   30   31 1
  55   30   33 1
  56   30   60 1
  57   30   61 1
  58   31   36 1
  59   33   34 1
  60   33   62 1
  61   33   63 1
  62   34   35 1
  63   34   37 1
  64   34   64 1
  65   35   36 1
  66   35   65 1
  67   35   66 1
  68   36   67 1
  69   36   68 1
  70   37   38 1
  71   37   41 1
  72   38   39 1
  73   38   69 1
  74   38   70 1
  75   39   40 1
  76   39   71 1
  77   39   72 1
  78   40   41 1
  79   40   73 1
  80   40   74 1
  81   41   75 1
  82   41   76 1

#	End of record

