#	Name: ASD06170136
#	Creating user name:	WinNT
#	Creation time:	15. 06. 2019 21:05

#	Modifying user name:	WinNT
#	Modification time:	15. 06. 2019 21:05

#	Program:	/corina/corina34_cracker 3.40 0067  02.08.2006

@<TRIPOS>MOLECULE
ASD06170136
  70   75    0    0    0
SMALL
NO_CHARGES


@<TRIPOS>ATOM
   1 N1             0.0377     1.5289    -0.3319 N.pl3   
   2 N2            -0.0066     0.1440    -0.1456 N.am    
   3 C3             1.2327    -0.2871     0.1684 C.2     
   4 C4             2.0992     0.9022     0.1777 C.2     
   5 C5             1.2926     1.9778    -0.1388 C.2     
   6 C6             3.5379     0.9384     0.4666 C.2     
   7 O7             4.1374     1.9971     0.4402 O.2     
   8 N8             4.1950    -0.2009     0.7609 N.am    
   9 C9            -1.1450    -0.6598    -0.2649 C.ar    
  10 C10           -2.0169    -0.4779    -1.3305 C.ar    
  11 C11           -3.1398    -1.2736    -1.4456 C.ar    
  12 C12           -3.3967    -2.2504    -0.5010 C.ar    
  13 C13           -2.5307    -2.4338     0.5614 C.ar    
  14 C14           -1.4028    -1.6456     0.6789 C.ar    
  15 O15            1.5680    -1.4339     0.3989 O.2     
  16 C16            1.7414     3.4121    -0.2501 C.3     
  17 C17           -1.1095     2.3666    -0.6901 C.3     
  18 C18           -1.7005     2.9905     0.5757 C.3     
  19 C19           -2.8986     3.8654     0.2015 C.3     
  20 O20           -2.1259     1.9546     1.4634 O.3     
  21 C21            5.5909    -0.1954     0.8724 C.ar    
  22 C22            6.2526     0.9646     1.2539 C.ar    
  23 C23            7.6304     0.9690     1.3641 C.ar    
  24 C24            8.3523    -0.1873     1.0931 C.ar    
  25 C25            7.6907    -1.3446     0.7123 C.ar    
  26 C26            6.3132    -1.3509     0.6072 C.ar    
  27 O27            9.7080    -0.1833     1.2010 O.3     
  28 C28           12.1656    -0.2452     3.9200 C.ar    
  29 C29           11.6361    -0.2640     2.6266 C.ar    
  30 C30           10.2482    -0.1680     2.4463 C.ar    
  31 C31            9.4393    -0.0565     3.5689 C.ar    
  32 C32           10.0260    -0.0439     4.8226 C.ar    
  33 N33           11.3250    -0.1346     4.9705 N.ar    
  34 C34           13.5657    -0.3555     3.9292 C.2     
  35 C35           14.1452    -0.4577     2.7277 C.2     
  36 S36           12.9385    -0.4147     1.4540 S.3     
  37 C37           17.5650    -0.7249     1.5467 C.2     
  38 N38           17.7424    -0.7932     2.8391 N.2     
  39 C39           16.5608    -0.7096     3.4592 C.2     
  40 C40           15.5956    -0.5825     2.5045 C.2     
  41 N41           16.2456    -0.5933     1.2893 N.pl3   
  42 C42           15.6231    -0.4825    -0.0322 C.3     
  43 F43            8.2751     2.0969     1.7347 F       
  44 H44            3.7010    -1.0248     0.8956 H       
  45 H45           -1.8173     0.2853    -2.0681 H       
  46 H46           -3.8183    -1.1326    -2.2740 H       
  47 H47           -4.2756    -2.8711    -0.5931 H       
  48 H48           -2.7345    -3.1971     1.2978 H       
  49 H49           -0.7244    -1.7925     1.5063 H       
  50 H50            1.6456     3.8992     0.7203 H       
  51 H51            2.7826     3.4432    -0.5710 H       
  52 H52            1.1206     3.9315    -0.9801 H       
  53 H53           -0.7850     3.1568    -1.3673 H       
  54 H54           -1.8665     1.7553    -1.1814 H       
  55 H55           -0.9435     3.6019     1.0669 H       
  56 H56           -3.6556     3.2540    -0.2897 H       
  57 H57           -3.3197     4.3099     1.1033 H       
  58 H58           -2.5742     4.6556    -0.4756 H       
  59 H59           -2.8007     1.3704     1.0914 H       
  60 H60            5.6909     1.8628     1.4640 H       
  61 H61            8.2522    -2.2429     0.5019 H       
  62 H62            5.7983    -2.2542     0.3148 H       
  63 H63            8.3669     0.0196     3.4656 H       
  64 H64            9.3995     0.0430     5.6980 H       
  65 H65           14.1370    -0.3573     4.8458 H       
  66 H66           18.3478    -0.7630     0.8037 H       
  67 H67           16.3995    -0.7377     4.5267 H       
  68 H68           15.3745    -1.4775    -0.4012 H       
  69 H69           14.7144     0.1147     0.0432 H       
  70 H70           16.3174    -0.0023    -0.7217 H       
@<TRIPOS>BOND
   1    1    2 1
   2    1    5 1
   3    1   17 1
   4    2    3 am
   5    2    9 1
   6    3    4 1
   7    3   15 2
   8    4    5 2
   9    4    6 1
  10    5   16 1
  11    6    7 2
  12    6    8 am
  13    8   21 1
  14    8   44 1
  15    9   10 ar
  16    9   14 ar
  17   10   11 ar
  18   10   45 1
  19   11   12 ar
  20   11   46 1
  21   12   13 ar
  22   12   47 1
  23   13   14 ar
  24   13   48 1
  25   14   49 1
  26   16   50 1
  27   16   51 1
  28   16   52 1
  29   17   18 1
  30   17   53 1
  31   17   54 1
  32   18   19 1
  33   18   20 1
  34   18   55 1
  35   19   56 1
  36   19   57 1
  37   19   58 1
  38   20   59 1
  39   21   22 ar
  40   21   26 ar
  41   22   23 ar
  42   22   60 1
  43   23   24 ar
  44   23   43 1
  45   24   25 ar
  46   24   27 1
  47   25   26 ar
  48   25   61 1
  49   26   62 1
  50   27   30 1
  51   28   29 ar
  52   28   33 ar
  53   28   34 1
  54   29   30 ar
  55   29   36 1
  56   30   31 ar
  57   31   32 ar
  58   31   63 1
  59   32   33 ar
  60   32   64 1
  61   34   35 2
  62   34   65 1
  63   35   36 1
  64   35   40 1
  65   37   38 2
  66   37   41 1
  67   37   66 1
  68   38   39 1
  69   39   40 2
  70   39   67 1
  71   40   41 1
  72   41   42 1
  73   42   68 1
  74   42   69 1
  75   42   70 1

#	End of record

