#	Name: ASD01913425
#	Creating user name:	WinNT
#	Creation time:	15. 06. 2019 20:01

#	Modifying user name:	WinNT
#	Modification time:	15. 06. 2019 20:01

#	Program:	/corina/corina34_cracker 3.40 0067  02.08.2006

@<TRIPOS>MOLECULE
ASD01913425
  34   36    0    0    0
SMALL
NO_CHARGES


@<TRIPOS>ATOM
   1 C1            -0.3597    -0.7339    -2.2463 C.ar    
   2 C2            -0.6984    -0.0501    -1.0830 C.ar    
   3 C3            -0.5581     1.3339    -1.0673 C.ar    
   4 N4            -0.1108     1.9461    -2.1512 N.ar    
   5 C5             0.1997     1.2628    -3.2345 C.ar    
   6 N6             0.0805    -0.0486    -3.2886 N.ar    
   7 C7            -1.1682    -2.0752    -0.0312 C.ar    
   8 C8            -0.0506    -2.7925     0.3738 C.ar    
   9 C9            -0.0602    -4.1749     0.3393 C.ar    
  10 C10           -1.1807    -4.8507    -0.0980 C.ar    
  11 C11           -2.3097    -4.1381    -0.5069 C.ar    
  12 C12           -2.2987    -2.7435    -0.4716 C.ar    
  13 C13           -3.5118    -4.8587    -0.9764 C.2     
  14 N14           -3.5195    -6.2060    -1.0104 N.am    
  15 O15           -4.4935    -4.2361    -1.3320 O.2     
  16 O16           -1.1550    -0.7170     0.0097 O.3     
  17 C17           -4.6491    -6.8831    -1.4516 C.2     
  18 S18           -6.0941    -6.1373    -1.9795 S.3     
  19 C19           -6.8104    -7.7175    -2.2854 C.2     
  20 C20           -5.9094    -8.6489    -1.9668 C.2     
  21 N21           -4.7592    -8.1726    -1.5284 N.2     
  22 C22           -6.1813   -10.1251    -2.1019 C.3     
  23 H23           -0.4507    -1.8089    -2.2961 H       
  24 H24           -0.8109     1.9002    -0.1831 H       
  25 H25            0.5618     1.7928    -4.1031 H       
  26 H26            0.8296    -2.2690     0.7167 H       
  27 H27            0.8124    -4.7273     0.6553 H       
  28 H28           -1.1845    -5.9304    -0.1243 H       
  29 H29           -3.1689    -2.1868    -0.7867 H       
  30 H30           -2.7361    -6.7028    -0.7267 H       
  31 H31           -7.8051    -7.9005    -2.6642 H       
  32 H32           -5.8848   -10.4596    -3.0960 H       
  33 H33           -5.6105   -10.6699    -1.3499 H       
  34 H34           -7.2451   -10.3133    -1.9575 H       
@<TRIPOS>BOND
   1    1    2 ar
   2    1    6 ar
   3    1   23 1
   4    2    3 ar
   5    2   16 1
   6    3    4 ar
   7    3   24 1
   8    4    5 ar
   9    5    6 ar
  10    5   25 1
  11    7    8 ar
  12    7   12 ar
  13    7   16 1
  14    8    9 ar
  15    8   26 1
  16    9   10 ar
  17    9   27 1
  18   10   11 ar
  19   10   28 1
  20   11   12 ar
  21   11   13 1
  22   12   29 1
  23   13   14 am
  24   13   15 2
  25   14   17 1
  26   14   30 1
  27   17   18 1
  28   17   21 2
  29   18   19 1
  30   19   20 2
  31   19   31 1
  32   20   21 1
  33   20   22 1
  34   22   32 1
  35   22   33 1
  36   22   34 1

#	End of record

