#	Name: ASD05940115
#	Creating user name:	WinNT
#	Creation time:	15. 06. 2019 21:04

#	Modifying user name:	WinNT
#	Modification time:	15. 06. 2019 21:04

#	Program:	/corina/corina34_cracker 3.40 0067  02.08.2006

@<TRIPOS>MOLECULE
ASD05940115
  63   65    0    0    0
SMALL
NO_CHARGES


@<TRIPOS>ATOM
   1 O1            -1.2785    -2.1515    -1.1652 O.3     
   2 C2             0.1322    -1.9795    -1.0155 C.3     
   3 C3             0.4845    -0.4985    -1.1679 C.3     
   4 N4             0.1055    -0.0407    -2.5113 N.3     
   5 C5             0.0740     1.4264    -2.5782 C.3     
   6 C6             1.0071    -0.5949    -3.5301 C.3     
   7 C7             0.4508    -0.3104    -4.9015 C.2     
   8 C8             0.7163     0.8219    -5.6786 C.2     
   9 C9             1.6105     1.9708    -5.2895 C.3     
  10 C10           -0.3893    -1.1078    -5.6011 C.2     
  11 N11           -0.6508    -0.4990    -6.7766 N.pl3   
  12 N12            0.0548     0.7109    -6.8020 N.2     
  13 C13           -0.9343    -2.4380    -5.1488 C.3     
  14 C14            0.5611    -2.4658     0.3703 C.3     
  15 O15            0.3391    -3.8739     0.4709 O.3     
  16 C16            0.6697    -4.4681     1.6475 C.ar    
  17 C17            0.4806    -5.8324     1.8141 C.ar    
  18 C18            0.8174    -6.4341     3.0111 C.ar    
  19 C19            1.3427    -5.6778     4.0426 C.ar    
  20 C20            1.5317    -4.3179     3.8792 C.ar    
  21 C21            1.2022    -3.7126     2.6820 C.ar    
  22 C22           -1.5165    -1.0143    -7.8403 C.3     
  23 C23           -2.9272    -0.5337    -7.6167 C.ar    
  24 C24           -3.8318    -1.3344    -6.9453 C.ar    
  25 C25           -5.1261    -0.8936    -6.7403 C.ar    
  26 C26           -5.5152     0.3481    -7.2064 C.ar    
  27 C27           -4.6101     1.1494    -7.8772 C.ar    
  28 C28           -3.3150     0.7105    -8.0784 C.ar    
  29 C29            1.7093    -6.3368     5.3474 C.3     
  30 F30            3.0401    -6.7651     5.2958 F       
  31 F31            1.5547    -5.4198     6.3926 F       
  32 F32            0.8733    -7.4372     5.5651 F       
  33 C33           -2.3284     1.5840    -8.8096 C.3     
  34 F34           -2.9516     2.7793    -9.1837 F       
  35 F35           -1.2443     1.8657    -7.9714 F       
  36 F36           -1.8733     0.9177    -9.9525 F       
  37 H37           -1.8051    -1.6648    -0.5165 H       
  38 H38            0.6518    -2.5571    -1.7801 H       
  39 H39           -0.0558     0.0823    -0.4203 H       
  40 H40            1.5569    -0.3637    -1.0272 H       
  41 H41            1.0810     1.8184    -2.4354 H       
  42 H42           -0.3023     1.7377    -3.5527 H       
  43 H43           -0.5801     1.8118    -1.7961 H       
  44 H44            1.9904    -0.1345    -3.4342 H       
  45 H45            1.0951    -1.6723    -3.3901 H       
  46 H46            2.6286     1.7674    -5.6215 H       
  47 H47            1.2512     2.8862    -5.7596 H       
  48 H48            1.5986     2.0898    -4.2061 H       
  49 H49           -1.8714    -2.2837    -4.6138 H       
  50 H50           -1.1120    -3.0722    -6.0173 H       
  51 H51           -0.2139    -2.9202    -4.4881 H       
  52 H52            1.6199    -2.2534     0.5184 H       
  53 H53           -0.0230    -1.9506     1.1329 H       
  54 H54            0.0700    -6.4234     1.0088 H       
  55 H55            0.6701    -7.4960     3.1415 H       
  56 H56            1.9415    -3.7293     4.6867 H       
  57 H57            1.3501    -2.6503     2.5548 H       
  58 H58           -1.1591    -0.6555    -8.8055 H       
  59 H59           -1.4977    -2.1041    -7.8281 H       
  60 H60           -3.5278    -2.3047    -6.5811 H       
  61 H61           -5.8332    -1.5196    -6.2163 H       
  62 H62           -6.5264     0.6921    -7.0469 H       
  63 H63           -4.9142     2.1195    -8.2417 H       
@<TRIPOS>BOND
   1    1    2 1
   2    1   37 1
   3    2    3 1
   4    2   14 1
   5    2   38 1
   6    3    4 1
   7    3   39 1
   8    3   40 1
   9    4    5 1
  10    4    6 1
  11    5   41 1
  12    5   42 1
  13    5   43 1
  14    6    7 1
  15    6   44 1
  16    6   45 1
  17    7    8 1
  18    7   10 2
  19    8    9 1
  20    8   12 2
  21    9   46 1
  22    9   47 1
  23    9   48 1
  24   10   11 1
  25   10   13 1
  26   11   12 1
  27   11   22 1
  28   13   49 1
  29   13   50 1
  30   13   51 1
  31   14   15 1
  32   14   52 1
  33   14   53 1
  34   15   16 1
  35   16   17 ar
  36   16   21 ar
  37   17   18 ar
  38   17   54 1
  39   18   19 ar
  40   18   55 1
  41   19   20 ar
  42   19   29 1
  43   20   21 ar
  44   20   56 1
  45   21   57 1
  46   22   23 1
  47   22   58 1
  48   22   59 1
  49   23   24 ar
  50   23   28 ar
  51   24   25 ar
  52   24   60 1
  53   25   26 ar
  54   25   61 1
  55   26   27 ar
  56   26   62 1
  57   27   28 ar
  58   27   63 1
  59   28   33 1
  60   29   30 1
  61   29   31 1
  62   29   32 1
  63   33   34 1
  64   33   35 1
  65   33   36 1

#	End of record

