#	Name: ASD01880043
#	Creating user name:	WinNT
#	Creation time:	15. 06. 2019 19:39

#	Modifying user name:	WinNT
#	Modification time:	15. 06. 2019 19:39

#	Program:	/corina/corina34_cracker 3.40 0067  02.08.2006

@<TRIPOS>MOLECULE
ASD01880043
  56   57    0    0    0
SMALL
NO_CHARGES


@<TRIPOS>ATOM
   1 C1            -0.0167     1.3832     0.0096 C.ar    
   2 C2             0.0021    -0.0041     0.0020 C.ar    
   3 C3            -1.1903    -0.7238     0.0090 C.ar    
   4 C4            -2.3894    -0.0733     0.0239 C.ar    
   5 C5            -2.4280     1.3279     0.0323 C.ar    
   6 C6            -1.2255     2.0574     0.0306 C.ar    
   7 C7            -3.7142     2.0288     0.0478 C.2     
   8 C8            -5.0003     1.2434     0.0548 C.3     
   9 C9            -6.1873     2.2086     0.0709 C.3     
  10 C10           -7.4907     1.4162    -0.0477 C.3     
  11 C11           -6.1867     2.9959     1.3828 C.3     
  12 O12           -1.2502     3.4132     0.0391 O.3     
  13 C13            2.5050    -4.1813    -0.0442 C.3     
  14 C14            3.9282    -4.7426    -0.0608 C.3     
  15 C15            3.8734    -6.2716    -0.0685 C.3     
  16 S16            5.5608    -6.9371    -0.0881 S.3     
  17 C17            5.2995    -8.6796    -0.0950 C.ar    
  18 C18            6.3778    -9.5653    -0.1100 C.ar    
  19 C19            6.1304   -10.9216    -0.1149 C.ar    
  20 N20            4.8940   -11.3842    -0.1062 N.ar    
  21 C21            3.8476   -10.5794    -0.0919 C.ar    
  22 C22            4.0089    -9.2103    -0.0797 C.ar    
  23 O23           -3.7441     3.2418     0.0550 O.2     
  24 C24            2.5599    -2.6523    -0.0365 C.3     
  25 C25            1.1367    -2.0909    -0.0200 C.3     
  26 O26            1.1880    -0.6629    -0.0128 O.3     
  27 C27            1.2775     2.1551     0.0014 C.3     
  28 H28           -1.1656    -1.8035     0.0023 H       
  29 H29           -3.3097    -0.6384     0.0289 H       
  30 H30           -5.0506     0.6206    -0.8383 H       
  31 H31           -5.0346     0.6104     0.9415 H       
  32 H32           -6.1048     2.9000    -0.7677 H       
  33 H33           -7.5732     0.7248     0.7910 H       
  34 H34           -8.3363     2.1038    -0.0362 H       
  35 H35           -7.4911     0.8553    -0.9823 H       
  36 H36           -7.0323     3.6835     1.3943 H       
  37 H37           -6.2691     2.3045     2.2215 H       
  38 H38           -5.2581     3.5604     1.4673 H       
  39 H39           -1.2528     3.8010     0.9249 H       
  40 H40            1.9701    -4.5212    -0.9310 H       
  41 H41            1.9870    -4.5307     0.8489 H       
  42 H42            4.4463    -4.3931    -0.9539 H       
  43 H43            4.4632    -4.4027     0.8260 H       
  44 H44            3.3553    -6.6211     0.8246 H       
  45 H45            3.3384    -6.6115    -0.9552 H       
  46 H46            7.3918    -9.1935    -0.1179 H       
  47 H47            6.9588   -11.6145    -0.1265 H       
  48 H48            2.8525   -10.9990    -0.0851 H       
  49 H49            3.1486    -8.5575    -0.0681 H       
  50 H50            3.0949    -2.3124     0.8502 H       
  51 H51            3.0780    -2.3028    -0.9296 H       
  52 H52            0.6017    -2.4309    -0.9068 H       
  53 H53            0.6187    -2.4404     0.8731 H       
  54 H54            1.5797     2.3468    -1.0281 H       
  55 H55            1.1386     3.1028     0.5217 H       
  56 H56            2.0503     1.5741     0.5048 H       
@<TRIPOS>BOND
   1    1    2 ar
   2    1   27 1
   3    1    6 ar
   4    2    3 ar
   5    2   26 1
   6    3    4 ar
   7    3   28 1
   8    4    5 ar
   9    4   29 1
  10    5    6 ar
  11    5    7 1
  12    6   12 1
  13    7    8 1
  14    7   23 2
  15    8    9 1
  16    8   30 1
  17    8   31 1
  18    9   10 1
  19    9   11 1
  20    9   32 1
  21   10   33 1
  22   10   34 1
  23   10   35 1
  24   11   36 1
  25   11   37 1
  26   11   38 1
  27   12   39 1
  28   13   14 1
  29   13   24 1
  30   13   40 1
  31   13   41 1
  32   14   15 1
  33   14   42 1
  34   14   43 1
  35   15   16 1
  36   15   44 1
  37   15   45 1
  38   16   17 1
  39   17   18 ar
  40   17   22 ar
  41   18   19 ar
  42   18   46 1
  43   19   20 ar
  44   19   47 1
  45   20   21 ar
  46   21   22 ar
  47   21   48 1
  48   22   49 1
  49   24   25 1
  50   24   50 1
  51   24   51 1
  52   25   26 1
  53   25   52 1
  54   25   53 1
  55   27   54 1
  56   27   55 1
  57   27   56 1

#	End of record

