#	Name: ASD01884882
#	Creating user name:	WinNT
#	Creation time:	15. 06. 2019 19:49

#	Modifying user name:	WinNT
#	Modification time:	15. 06. 2019 19:49

#	Program:	/corina/corina34_cracker 3.40 0067  02.08.2006

@<TRIPOS>MOLECULE
ASD01884882
  35   38    0    0    0
SMALL
NO_CHARGES


@<TRIPOS>ATOM
   1 C1            -0.0164     1.3603     0.0095 C.ar    
   2 C2             0.0021    -0.0041     0.0020 C.ar    
   3 C3             1.2156    -0.7021    -0.0134 C.ar    
   4 C4             2.4185    -0.0072    -0.0207 C.ar    
   5 C5             2.4037     1.3872    -0.0131 C.ar    
   6 C6             1.1771     2.0775     0.0020 C.ar    
   7 C7             3.4476     2.4155    -0.0177 C.2     
   8 C8             2.8259     3.6050    -0.0058 C.2     
   9 N9             1.4698     3.4230     0.0061 N.pl3   
  10 C10            1.2169    -2.1836    -0.0213 C.2     
  11 C11            0.7028    -2.8754    -1.1019 C.2     
  12 C12            1.7508    -2.9040     1.0767 C.2     
  13 C13            1.7522    -4.2487     1.0699 C.2     
  14 N14            1.2409    -4.9446     0.0085 N.pl3   
  15 C15            0.7176    -4.2824    -1.0810 C.2     
  16 Cl16           0.0481    -2.0213    -2.4641 Cl      
  17 C17            1.1117    -6.2727    -0.2680 C.2     
  18 N18            0.5421    -6.3751    -1.4456 N.2     
  19 N19            0.3074    -5.2072    -1.9316 N.2     
  20 O20            1.5009    -7.3005     0.5282 O.3     
  21 H21            0.8123     4.1361     0.0159 H       
  22 C22            1.2690    -8.6233     0.0398 C.3     
  23 C23            1.7699    -9.6411     1.0664 C.3     
  24 H24           -0.9600     1.8856     0.0168 H       
  25 H25           -0.9291    -0.5512     0.0084 H       
  26 H26            3.3567    -0.5421    -0.0319 H       
  27 H27            4.5145     2.2481    -0.0280 H       
  28 H28            3.3226     4.5640    -0.0056 H       
  29 H29            2.1587    -2.3703     1.9225 H       
  30 H30            2.1621    -4.7860     1.9123 H       
  31 H31            0.2012    -8.7680    -0.1242 H       
  32 H32            1.8031    -8.7624    -0.9002 H       
  33 H33            1.5930   -10.6501     0.6939 H       
  34 H34            2.8378    -9.4963     1.2304 H       
  35 H35            1.2359    -9.5020     2.0064 H       
@<TRIPOS>BOND
   1    1    2 ar
   2    1    6 ar
   3    1   24 1
   4    2    3 ar
   5    2   25 1
   6    3    4 ar
   7    3   10 1
   8    4    5 ar
   9    4   26 1
  10    5    6 ar
  11    5    7 1
  12    6    9 1
  13    7    8 2
  14    7   27 1
  15    8    9 1
  16    8   28 1
  17    9   21 1
  18   10   11 2
  19   10   12 1
  20   11   16 1
  21   11   15 1
  22   12   13 2
  23   12   29 1
  24   13   14 1
  25   13   30 1
  26   14   15 1
  27   14   17 1
  28   15   19 2
  29   17   18 2
  30   17   20 1
  31   18   19 1
  32   20   22 1
  33   22   23 1
  34   22   31 1
  35   22   32 1
  36   23   33 1
  37   23   34 1
  38   23   35 1

#	End of record

