#	Name: ASD08150651
#	Creating user name:	WinNT
#	Creation time:	15. 06. 2019 21:16

#	Modifying user name:	WinNT
#	Modification time:	15. 06. 2019 21:16

#	Program:	/corina/corina34_cracker 3.40 0067  02.08.2006

@<TRIPOS>MOLECULE
ASD08150651
  58   63    0    0    0
SMALL
NO_CHARGES


@<TRIPOS>ATOM
   1 N1            -0.3223     0.9697     0.8313 N.am    
   2 C2            -0.4934    -0.2761     1.3144 C.2     
   3 C3             0.6062    -1.1394     1.4954 C.2     
   4 C4             1.8600    -0.7234     1.1831 C.2     
   5 C5             2.0436     0.5868     0.6746 C.ar    
   6 C6             3.3224     1.0678     0.3346 C.ar    
   7 N7             3.4889     2.2769    -0.1343 N.ar    
   8 C8             2.4638     3.1227    -0.3182 C.ar    
   9 C9             1.1416     2.7231    -0.0034 C.ar    
  10 C10            0.9275     1.4209     0.5065 C.ar    
  11 C11            0.0802     3.6122    -0.1982 C.ar    
  12 C12            0.3345     4.8790    -0.6991 C.ar    
  13 C13            1.6458     5.2671    -1.0088 C.ar    
  14 C14            2.6883     4.4136    -0.8242 C.ar    
  15 O15           -1.6143    -0.6621     1.5992 O.2     
  16 C16           -0.7851     5.8281    -0.9088 C.ar    
  17 C17           -1.4320     1.8065     0.6551 C.ar    
  18 C18           -2.1818     1.7298    -0.5116 C.ar    
  19 C19           -3.2750     2.5545    -0.6846 C.ar    
  20 C20           -3.6249     3.4605     0.3066 C.ar    
  21 C21           -2.8762     3.5380     1.4720 C.ar    
  22 C22           -1.7863     2.7089     1.6492 C.ar    
  23 O23           -4.7014     4.2728     0.1354 O.3     
  24 C24           -2.1055     5.3895    -0.7618 C.ar    
  25 C25           -3.1446     6.2520    -0.9523 C.ar    
  26 C26           -2.8922     7.5828    -1.2960 C.ar    
  27 C27           -1.5672     8.0349    -1.4461 C.ar    
  28 C28           -0.5167     7.1497    -1.2447 C.ar    
  29 C29           -6.7132     4.9771    -1.0034 C.3     
  30 C30           -5.4630     4.0970    -1.0608 C.3     
  31 C31           -3.7472     8.7407    -1.5663 C.2     
  32 C32           -2.9348     9.7719    -1.8491 C.2     
  33 N33           -1.6289     9.3695    -1.7823 N.pl3   
  34 O34           -6.3274     6.3530    -0.9997 O.3     
  35 C35           -3.2566     4.5225     2.5477 C.3     
  36 F36           -2.3016     4.4889     3.5695 F       
  37 F37           -3.3117     5.8100     2.0031 F       
  38 F38           -4.5095     4.1827     3.0690 F       
  39 H39            0.4506    -2.1349     1.8842 H       
  40 H40            2.7055    -1.3811     1.3204 H       
  41 H41            4.1817     0.4264     0.4637 H       
  42 H42           -0.9301     3.3138     0.0394 H       
  43 H43            1.8304     6.2571    -1.3988 H       
  44 H44            3.6920     4.7293    -1.0678 H       
  45 H45           -1.9092     1.0252    -1.2835 H       
  46 H46           -3.8581     2.4950    -1.5917 H       
  47 H47           -1.2064     2.7660     2.5585 H       
  48 H48           -2.3030     4.3615    -0.4962 H       
  49 H49           -4.1616     5.9068    -0.8379 H       
  50 H50            0.5040     7.4844    -1.3568 H       
  51 H51           -7.3384     4.7774    -1.8737 H       
  52 H52           -7.2730     4.7543    -0.0951 H       
  53 H53           -4.8580     4.3810    -1.9218 H       
  54 H54           -5.7584     3.0518    -1.1532 H       
  55 H55           -4.8267     8.7612    -1.5428 H       
  56 H56           -3.2637    10.7713    -2.0930 H       
  57 H57           -0.8611     9.9390    -1.9466 H       
  58 H58           -7.0711     6.9700    -0.9643 H       
@<TRIPOS>BOND
   1    1    2 am
   2    1   10 1
   3    1   17 1
   4    2    3 1
   5    2   15 2
   6    3    4 2
   7    3   39 1
   8    4    5 1
   9    4   40 1
  10    5    6 ar
  11    5   10 ar
  12    6    7 ar
  13    6   41 1
  14    7    8 ar
  15    8    9 ar
  16    8   14 ar
  17    9   10 ar
  18    9   11 ar
  19   11   12 ar
  20   11   42 1
  21   12   13 ar
  22   12   16 1
  23   13   14 ar
  24   13   43 1
  25   14   44 1
  26   16   24 ar
  27   16   28 ar
  28   17   18 ar
  29   17   22 ar
  30   18   19 ar
  31   18   45 1
  32   19   20 ar
  33   19   46 1
  34   20   21 ar
  35   20   23 1
  36   21   22 ar
  37   21   35 1
  38   22   47 1
  39   23   30 1
  40   24   25 ar
  41   24   48 1
  42   25   26 ar
  43   25   49 1
  44   26   27 ar
  45   26   31 1
  46   27   28 ar
  47   27   33 1
  48   28   50 1
  49   29   30 1
  50   29   34 1
  51   29   51 1
  52   29   52 1
  53   30   53 1
  54   30   54 1
  55   31   32 2
  56   31   55 1
  57   32   33 1
  58   32   56 1
  59   33   57 1
  60   34   58 1
  61   35   36 1
  62   35   37 1
  63   35   38 1

#	End of record

