#	Name: ASD01917524
#	Creating user name:	WinNT
#	Creation time:	15. 06. 2019 20:09

#	Modifying user name:	WinNT
#	Modification time:	15. 06. 2019 20:09

#	Program:	/corina/corina34_cracker 3.40 0067  02.08.2006

@<TRIPOS>MOLECULE
ASD01917524
  50   54    0    0    0
SMALL
NO_CHARGES


@<TRIPOS>ATOM
   1 C1            -0.0171     1.4093     0.0098 C.ar    
   2 C2             0.0021    -0.0041     0.0020 C.ar    
   3 C3            -1.1912    -0.7240     0.0401 C.ar    
   4 C4            -2.3837    -0.0599     0.0717 C.ar    
   5 C5            -2.4195     1.3394     0.0667 C.ar    
   6 C6            -1.2421     2.0755     0.0362 C.ar    
   7 N7             1.1594     2.0747     0.0021 N.2     
   8 C8             2.3196     1.4675    -0.0393 C.2     
   9 N9             2.4205     0.1195    -0.1563 N.am    
  10 C10            1.3109    -0.6632    -0.0613 C.2     
  11 O11            1.4022    -1.8767    -0.0302 O.2     
  12 C12           -3.7250     2.0415     0.0939 C.ar    
  13 C13            3.5352     2.3455     0.1019 C.3     
  14 C14            4.7919     1.6930    -0.4306 C.3     
  15 C15            4.8969     0.2369    -0.0257 C.3     
  16 C16            3.6802    -0.5619    -0.4347 C.3     
  17 C17            6.1353    -0.3731    -0.6852 C.3     
  18 C18            5.0561     0.1550     1.4938 C.3     
  19 N19           -3.7714     3.3648    -0.0107 N.ar    
  20 N20           -4.8790     4.0129     0.0081 N.ar    
  21 C21           -6.0523     3.4036     0.1333 C.ar    
  22 C22           -6.1047     2.0114     0.2499 C.ar    
  23 C23           -4.9105     1.3117     0.2239 C.ar    
  24 C24           -7.3042     4.1983     0.1500 C.ar    
  25 N25           -8.4727     3.5825     0.2755 N.ar    
  26 C26           -9.6072     4.2514     0.2947 C.ar    
  27 C27           -9.6208     5.6300     0.1840 C.ar    
  28 C28           -8.4208     6.3139     0.0510 C.ar    
  29 C29           -7.2433     5.5861     0.0395 C.ar    
  30 H30           -1.1723    -1.8038     0.0442 H       
  31 H31           -3.3073    -0.6190     0.1004 H       
  32 H32           -1.2749     3.1550     0.0333 H       
  33 H33            3.3635     3.2744    -0.4419 H       
  34 H34            3.6799     2.5792     1.1566 H       
  35 H35            4.7905     1.7583    -1.5186 H       
  36 H36            5.6592     2.2302    -0.0468 H       
  37 H37            3.6896    -1.5116     0.1001 H       
  38 H38            3.7388    -0.7652    -1.5039 H       
  39 H39            7.0243     0.1655    -0.3570 H       
  40 H40            6.2197    -1.4217    -0.3997 H       
  41 H41            6.0443    -0.2978    -1.7688 H       
  42 H42            4.1901     0.6095     1.9749 H       
  43 H43            5.1326    -0.8897     1.7953 H       
  44 H44            5.9591     0.6867     1.7937 H       
  45 H45           -7.0487     1.4969     0.3530 H       
  46 H46           -4.8945     0.2353     0.3097 H       
  47 H47          -10.5395     3.7161     0.3980 H       
  48 H48          -10.5565     6.1691     0.2006 H       
  49 H49           -8.4054     7.3902    -0.0371 H       
  50 H50           -6.2914     6.0860    -0.0624 H       
@<TRIPOS>BOND
   1    1    2 ar
   2    1    7 1
   3    1    6 ar
   4    2    3 ar
   5    2   10 1
   6    3    4 ar
   7    3   30 1
   8    4    5 ar
   9    4   31 1
  10    5    6 ar
  11    5   12 1
  12    6   32 1
  13    7    8 2
  14    8    9 1
  15    8   13 1
  16    9   10 am
  17    9   16 1
  18   10   11 2
  19   12   19 ar
  20   12   23 ar
  21   13   14 1
  22   13   33 1
  23   13   34 1
  24   14   15 1
  25   14   35 1
  26   14   36 1
  27   15   16 1
  28   15   17 1
  29   15   18 1
  30   16   37 1
  31   16   38 1
  32   17   39 1
  33   17   40 1
  34   17   41 1
  35   18   42 1
  36   18   43 1
  37   18   44 1
  38   19   20 ar
  39   20   21 ar
  40   21   22 ar
  41   21   24 1
  42   22   23 ar
  43   22   45 1
  44   23   46 1
  45   24   25 ar
  46   24   29 ar
  47   25   26 ar
  48   26   27 ar
  49   26   47 1
  50   27   28 ar
  51   27   48 1
  52   28   29 ar
  53   28   49 1
  54   29   50 1

#	End of record

