#	Name: ASD05792001
#	Creating user name:	WinNT
#	Creation time:	15. 06. 2019 21:03

#	Modifying user name:	WinNT
#	Modification time:	15. 06. 2019 21:03

#	Program:	/corina/corina34_cracker 3.40 0067  02.08.2006

@<TRIPOS>MOLECULE
ASD05792001
  77   80    0    0    0
SMALL
NO_CHARGES


@<TRIPOS>ATOM
   1 C1            -0.1339     0.1278     0.9725 C.3     
   2 C2            -0.0225    -1.3676     0.6783 C.3     
   3 C3             0.9728    -2.0179     1.6476 C.3     
   4 C4             2.2850    -1.2644     1.5172 C.2     
   5 C5             2.2535     0.2196     1.7659 C.3     
   6 C6             1.2150     0.8233     0.8059 C.3     
   7 C7             3.3576    -1.9140     1.1815 C.2     
   8 C8             4.6930    -1.2606     0.9851 C.3     
   9 C9             4.7905    -0.0199     1.9063 C.3     
  10 C10            3.5982     0.8731     1.5503 C.3     
  11 C11            6.0508     0.7234     1.5416 C.3     
  12 C12            6.1563     2.1360     2.1488 C.3     
  13 C13            4.9790     2.9659     1.6892 C.3     
  14 C14            3.6920     2.2598     2.1666 C.3     
  15 C15            7.3969     0.1165     1.9614 C.3     
  16 C16            8.3729     1.2683     1.5703 C.3     
  17 C17            7.5460     2.5780     1.6596 C.3     
  18 C18            6.2247     2.1472     3.6795 C.3     
  19 C19            4.7760    -0.5128     3.3474 C.3     
  20 C20            1.7622     0.4718     3.1892 C.3     
  21 O21           -1.3038    -1.9814     0.8369 O.3     
  22 C22            7.4740     3.2577     0.2974 C.3     
  23 C23            8.8735     3.7142    -0.1195 C.3     
  24 C24            8.7818     4.5202    -1.4167 C.3     
  25 C25           10.1814     4.9767    -1.8335 C.3     
  26 C26           10.0897     5.7827    -3.1308 C.3     
  27 C27            9.3030     7.0701    -2.8767 C.3     
  28 C28           11.4984     6.1328    -3.6143 C.3     
  29 H29            3.6753     1.0356     0.4501 H       
  30 H30            6.0688     0.8163     0.4325 H       
  31 C31            6.9304     2.2703    -0.7372 C.3     
  32 H32           -0.8446     0.5690     0.2603 H       
  33 H33           -0.5309     0.2801     1.9727 H       
  34 H34            0.3242    -1.5135    -0.3450 H       
  35 H35            0.5952    -1.9592     2.6642 H       
  36 H36            1.1202    -3.0623     1.3695 H       
  37 H37            1.5654     0.7010    -0.2197 H       
  38 H38            1.1060     1.8868     1.0242 H       
  39 H39            3.2849    -2.9835     1.0346 H       
  40 H40            5.4877    -1.9552     1.2476 H       
  41 H41            4.8003    -0.9400    -0.0485 H       
  42 H42            5.0261     3.9639     2.1248 H       
  43 H43            4.9442     3.0352     0.6017 H       
  44 H44            2.8390     2.8573     1.8295 H       
  45 H45            3.6811     2.2159     3.2469 H       
  46 H46            7.4514    -0.0992     3.0190 H       
  47 H47            7.6135    -0.7746     1.3695 H       
  48 H48            9.2044     1.3024     2.2718 H       
  49 H49            8.7335     1.1200     0.5549 H       
  50 H50            7.9894     3.2486     2.3976 H       
  51 H51            6.9610     1.4172     4.0156 H       
  52 H52            6.5146     3.1402     4.0230 H       
  53 H53            5.2472     1.8922     4.0888 H       
  54 H54            5.6338    -1.1634     3.5175 H       
  55 H55            4.8273     0.3404     4.0237 H       
  56 H56            3.8564    -1.0681     3.5322 H       
  57 H57            2.4390    -0.0063     3.8972 H       
  58 H58            1.7356     1.5447     3.3797 H       
  59 H59            0.7611     0.0570     3.3068 H       
  60 H60           -1.9857    -1.6254     0.2509 H       
  61 H61            6.8126     4.1221     0.3571 H       
  62 H62            9.3014     4.3372     0.6659 H       
  63 H63            9.5080     2.8421    -0.2776 H       
  64 H64            8.3539     3.8972    -2.2021 H       
  65 H65            8.1473     5.3923    -1.2585 H       
  66 H66           10.6093     5.5997    -1.0481 H       
  67 H67           10.8159     4.1046    -1.9917 H       
  68 H68            9.5813     5.1903    -3.8914 H       
  69 H69            8.2994     6.8207    -2.5323 H       
  70 H70            9.8115     7.6625    -2.1161 H       
  71 H71            9.2377     7.6443    -3.8009 H       
  72 H72           12.0589     5.2156    -3.7953 H       
  73 H73           11.4331     6.7070    -4.5385 H       
  74 H74           12.0069     6.7252    -2.8536 H       
  75 H75            7.4769     1.3300    -0.6642 H       
  76 H76            5.8721     2.0910    -0.5474 H       
  77 H77            7.0548     2.6863    -1.7370 H       
@<TRIPOS>BOND
   1    1    2 1
   2    1    6 1
   3    1   32 1
   4    1   33 1
   5    2    3 1
   6    2   21 1
   7    2   34 1
   8    3    4 1
   9    3   35 1
  10    3   36 1
  11    4    5 1
  12    4    7 2
  13    5    6 1
  14    5   10 1
  15    5   20 1
  16    6   37 1
  17    6   38 1
  18    7    8 1
  19    7   39 1
  20    8    9 1
  21    8   40 1
  22    8   41 1
  23    9   10 1
  24    9   19 1
  25    9   11 1
  26   10   29 1
  27   10   14 1
  28   11   15 1
  29   11   30 1
  30   11   12 1
  31   12   13 1
  32   12   18 1
  33   12   17 1
  34   13   14 1
  35   13   42 1
  36   13   43 1
  37   14   44 1
  38   14   45 1
  39   15   16 1
  40   15   46 1
  41   15   47 1
  42   16   17 1
  43   16   48 1
  44   16   49 1
  45   17   22 1
  46   17   50 1
  47   18   51 1
  48   18   52 1
  49   18   53 1
  50   19   54 1
  51   19   55 1
  52   19   56 1
  53   20   57 1
  54   20   58 1
  55   20   59 1
  56   21   60 1
  57   22   23 1
  58   22   31 1
  59   22   61 1
  60   23   24 1
  61   23   62 1
  62   23   63 1
  63   24   25 1
  64   24   64 1
  65   24   65 1
  66   25   26 1
  67   25   66 1
  68   25   67 1
  69   26   27 1
  70   26   28 1
  71   26   68 1
  72   27   69 1
  73   27   70 1
  74   27   71 1
  75   28   72 1
  76   28   73 1
  77   28   74 1
  78   31   75 1
  79   31   76 1
  80   31   77 1

#	End of record

