#	Name: ASD01001203
#	Creating user name:	WinNT
#	Creation time:	15. 06. 2019 18:55

#	Modifying user name:	WinNT
#	Modification time:	15. 06. 2019 18:55

#	Program:	/corina/corina34_cracker 3.40 0067  02.08.2006

@<TRIPOS>MOLECULE
ASD01001203
  51   54    0    0    0
SMALL
NO_CHARGES


@<TRIPOS>ATOM
   1 C1            -0.0184     1.5043     0.0103 C.3     
   2 C2             0.0021    -0.0041     0.0020 C.ar    
   3 C3            -0.7627     2.0222    -1.2180 C.3     
   4 C4            -0.1812    -0.7221    -1.1695 C.ar    
   5 C5             0.2104    -0.6770     1.1933 C.ar    
   6 C6            -0.1704     1.3778    -2.4745 C.3     
   7 C7            -0.6593     3.5425    -1.3061 C.3     
   8 C8            -0.1493    -2.1123    -1.1432 C.ar    
   9 N9            -0.4069    -0.0706    -2.3871 N.pl3   
  10 C10           -0.8475     1.9330    -3.7010 C.ar    
  11 C11            0.8142     3.9589    -1.2772 C.3     
  12 C12            0.0609    -2.7763     0.0488 C.ar    
  13 C13            0.2399    -2.0584     1.2168 C.ar    
  14 C14            1.4593     3.4012    -0.0046 C.3     
  15 C15            2.9412     3.7804     0.0262 C.3     
  16 N16            3.5584     3.2449     1.2470 N.3     
  17 O17            1.3301     1.9793    -0.0000 O.3     
  18 C18           -0.2296     2.9237    -4.4416 C.ar    
  19 C19           -0.8481     3.4344    -5.5663 C.ar    
  20 C20           -2.0903     2.9522    -5.9526 C.ar    
  21 C21           -2.7082     1.9581    -5.2079 C.ar    
  22 C22           -2.0829     1.4468    -4.0871 C.ar    
  23 C23            4.9848     3.5903     1.3109 C.3     
  24 O24           -2.7010     3.4532    -7.0584 O.3     
  25 C25            0.4674    -2.7837     2.5180 C.3     
  26 F26            0.4555    -4.1640     2.2907 F       
  27 F27            1.7059    -2.4093     3.0502 F       
  28 F28           -0.5480    -2.4510     3.4211 F       
  29 H29           -0.5200     1.8556     0.9121 H       
  30 H30           -1.8125     1.7376    -1.1475 H       
  31 H31            0.3508    -0.1203     2.1081 H       
  32 H32            0.9005     1.5752    -2.5213 H       
  33 H33           -1.1150     3.8841    -2.2354 H       
  34 H34           -1.1801     3.9914    -0.4603 H       
  35 H35           -0.2894    -2.6727    -2.0558 H       
  36 H36           -0.7150    -0.5669    -3.1615 H       
  37 H37            1.3249     3.5566    -2.1521 H       
  38 H38            0.8867     5.0465    -1.2771 H       
  39 H39            0.0852    -3.8559     0.0690 H       
  40 H40            0.9585     3.8166     0.8700 H       
  41 H41            3.4415     3.3622    -0.8473 H       
  42 H42            3.0388     4.8659     0.0158 H       
  43 H43            3.0712     3.5671     2.0698 H       
  44 H44            0.7373     3.2990    -4.1402 H       
  45 H45           -0.3653     4.2085    -6.1442 H       
  46 H46           -3.6751     1.5811    -5.5066 H       
  47 H47           -2.5635     0.6729    -3.5070 H       
  48 H48            5.4992     3.1708     0.4463 H       
  49 H49            5.0965     4.6745     1.3094 H       
  50 H50            5.4170     3.1817     2.2243 H       
  51 H51           -2.4844     2.9823    -7.8748 H       
@<TRIPOS>BOND
   1    1    2 1
   2    1   17 1
   3    1    3 1
   4    1   29 1
   5    2    4 ar
   6    2    5 ar
   7    3    7 1
   8    3    6 1
   9    3   30 1
  10    4    8 ar
  11    4    9 1
  12    5   13 ar
  13    5   31 1
  14    6    9 1
  15    6   10 1
  16    6   32 1
  17    7   11 1
  18    7   33 1
  19    7   34 1
  20    8   12 ar
  21    8   35 1
  22    9   36 1
  23   10   18 ar
  24   10   22 ar
  25   11   14 1
  26   11   37 1
  27   11   38 1
  28   12   13 ar
  29   12   39 1
  30   13   25 1
  31   14   15 1
  32   14   17 1
  33   14   40 1
  34   15   16 1
  35   15   41 1
  36   15   42 1
  37   16   23 1
  38   16   43 1
  39   18   19 ar
  40   18   44 1
  41   19   20 ar
  42   19   45 1
  43   20   21 ar
  44   20   24 1
  45   21   22 ar
  46   21   46 1
  47   22   47 1
  48   23   48 1
  49   23   49 1
  50   23   50 1
  51   24   51 1
  52   25   26 1
  53   25   27 1
  54   25   28 1

#	End of record

