#	Name: ASD07300743
#	Creating user name:	WinNT
#	Creation time:	15. 06. 2019 21:10

#	Modifying user name:	WinNT
#	Modification time:	15. 06. 2019 21:10

#	Program:	/corina/corina34_cracker 3.40 0067  02.08.2006

@<TRIPOS>MOLECULE
ASD07300743
  56   59    0    0    0
SMALL
NO_CHARGES


@<TRIPOS>ATOM
   1 C1            -0.0034     1.3925     0.2414 C.2     
   2 C2             0.0021    -0.0041     0.0020 C.2     
   3 N3             1.1924     2.0682     0.2265 N.pl3   
   4 N4             1.1445    -0.6201    -0.2278 N.2     
   5 C5             2.3036     0.0470    -0.2402 C.2     
   6 C6             2.3502     1.3752    -0.0186 C.2     
   7 N7            -0.9664     2.2611     0.5002 N.2     
   8 C8            -0.4399     3.4745     0.6478 C.2     
   9 C9             0.9142     3.3817     0.4819 C.2     
  10 C10            3.5836    -0.7021    -0.5078 C.3     
  11 C11            4.1053    -1.3034     0.7988 C.3     
  12 C12            5.4048    -2.0639     0.5271 C.3     
  13 F13            6.3593    -1.1845     0.0046 F       
  14 F14            5.8819    -2.6137     1.7218 F       
  15 F15            5.1616    -3.0888    -0.3935 F       
  16 N16           -1.1860    -0.7178     0.0100 N.pl3   
  17 C17           -2.4813    -0.0311     0.1360 C.3     
  18 C18           -3.4038    -0.5300    -0.9821 C.3     
  19 O19           -3.4381    -1.9591    -0.9615 O.3     
  20 C20           -2.1747    -2.5786    -1.2141 C.3     
  21 C21           -1.1896    -2.1841    -0.1135 C.3     
  22 C22           -1.2060     4.7364     0.9507 C.3     
  23 N23            2.8668     6.4360     0.3101 N.pl3   
  24 N24            3.7010     5.6268     1.0908 N.2     
  25 C25            3.1254     4.4643     1.2475 C.2     
  26 C26            1.8916     4.4906     0.5659 C.2     
  27 C27            1.7627     5.7256    -0.0033 C.2     
  28 C28            3.1419     7.8176    -0.0919 C.3     
  29 C29            3.4236     8.6640     1.1512 C.3     
  30 O30            3.6920    10.0117     0.7590 O.3     
  31 C31            3.9693    10.8906     1.8511 C.3     
  32 H32            3.2977     1.8932    -0.0336 H       
  33 H33            3.3941    -1.5006    -1.2251 H       
  34 H34            4.3272    -0.0169    -0.9149 H       
  35 H35            4.2949    -0.5048     1.5161 H       
  36 H36            3.3617    -1.9885     1.2059 H       
  37 H37           -2.9242    -0.2578     1.1059 H       
  38 H38           -2.3372     1.0450     0.0402 H       
  39 H39           -4.4093    -0.1394    -0.8259 H       
  40 H40           -3.0254    -0.1888    -1.9457 H       
  41 H41           -2.2959    -3.6617    -1.2248 H       
  42 H42           -1.7918    -2.2448    -2.1785 H       
  43 H43           -0.1904    -2.5330    -0.3744 H       
  44 H44           -1.5001    -2.6313     0.8308 H       
  45 H45           -1.2758     4.8687     2.0304 H       
  46 H46           -0.6881     5.5897     0.5128 H       
  47 H47           -2.2080     4.6634     0.5281 H       
  48 H48            3.5254     3.6285     1.8024 H       
  49 H49            0.9286     6.0711    -0.5961 H       
  50 H50            4.0105     7.8384    -0.7501 H       
  51 H51            2.2773     8.2218    -0.6184 H       
  52 H52            2.5550     8.6432     1.8093 H       
  53 H53            4.2882     8.2598     1.6777 H       
  54 H54            4.1623    11.8935     1.4704 H       
  55 H55            3.1121    10.9160     2.5238 H       
  56 H56            4.8452    10.5325     2.3922 H       
@<TRIPOS>BOND
   1    1    2 1
   2    1    3 1
   3    1    7 2
   4    2    4 2
   5    2   16 1
   6    3    6 1
   7    3    9 1
   8    4    5 1
   9    5    6 2
  10    5   10 1
  11    6   32 1
  12    7    8 1
  13    8    9 2
  14    8   22 1
  15    9   26 1
  16   10   11 1
  17   10   33 1
  18   10   34 1
  19   11   12 1
  20   11   35 1
  21   11   36 1
  22   12   13 1
  23   12   14 1
  24   12   15 1
  25   16   17 1
  26   16   21 1
  27   17   18 1
  28   17   37 1
  29   17   38 1
  30   18   19 1
  31   18   39 1
  32   18   40 1
  33   19   20 1
  34   20   21 1
  35   20   41 1
  36   20   42 1
  37   21   43 1
  38   21   44 1
  39   22   45 1
  40   22   46 1
  41   22   47 1
  42   23   24 1
  43   23   27 1
  44   23   28 1
  45   24   25 2
  46   25   26 1
  47   25   48 1
  48   26   27 2
  49   27   49 1
  50   28   29 1
  51   28   50 1
  52   28   51 1
  53   29   30 1
  54   29   52 1
  55   29   53 1
  56   30   31 1
  57   31   54 1
  58   31   55 1
  59   31   56 1

#	End of record

