#	Name: ASD05430628
#	Creating user name:	WinNT
#	Creation time:	15. 06. 2019 21:00

#	Modifying user name:	WinNT
#	Modification time:	15. 06. 2019 21:00

#	Program:	/corina/corina34_cracker 3.40 0067  02.08.2006

@<TRIPOS>MOLECULE
ASD05430628
  40   42    0    0    0
SMALL
NO_CHARGES


@<TRIPOS>ATOM
   1 C1            -0.0552     1.4378     0.0099 C.ar    
   2 C2            -0.0232     0.0376    -0.0611 C.ar    
   3 C3             1.1919    -0.6146    -0.1574 C.ar    
   4 C4             2.3760     0.1062    -0.1841 C.ar    
   5 C5             2.3594     1.4833    -0.1150 C.ar    
   6 C6             1.1497     2.1581    -0.0179 C.ar    
   7 C7             3.6533     2.2553    -0.1445 C.3     
   8 C8             4.4524     1.9601     1.1264 C.3     
   9 C9             4.4694     1.8364    -1.3689 C.3     
  10 N10           -1.2166    -0.6966    -0.0341 N.pl3   
  11 C11           -2.2263    -0.5636     0.8646 C.2     
  12 C12           -1.5881    -1.6806    -0.9134 C.2     
  13 C13           -2.8008    -2.1161    -0.5219 C.2     
  14 N14           -3.1659    -1.4183     0.5638 N.2     
  15 C15           -3.6096    -3.1978    -1.1903 C.3     
  16 N16            0.7985     3.4909     0.0659 N.pl3   
  17 C17           -0.5592     3.5476     0.1398 C.2     
  18 N18           -1.0589     2.3470     0.1024 N.2     
  19 C19           -3.9680    -4.2745    -0.1642 C.3     
  20 C20            1.7171     4.6321     0.0737 C.3     
  21 H21            1.2190    -1.6929    -0.2119 H       
  22 H22            3.3189    -0.4151    -0.2592 H       
  23 H23            3.4384     3.3226    -0.1989 H       
  24 H24            5.3882     2.5186     1.1051 H       
  25 H25            3.8709     2.2586     1.9987 H       
  26 H26            4.6672     0.8929     1.1808 H       
  27 H27            3.9001     2.0467    -2.2744 H       
  28 H28            5.4053     2.3948    -1.3902 H       
  29 H29            4.6843     0.7691    -1.3145 H       
  30 H30           -2.2478     0.1323     1.6903 H       
  31 H31           -1.0178    -2.0378    -1.7582 H       
  32 H32           -4.5236    -2.7675    -1.5998 H       
  33 H33           -3.0253    -3.6433    -1.9955 H       
  34 H34           -1.1375     4.4567     0.2147 H       
  35 H35           -4.5523    -3.8290     0.6410 H       
  36 H36           -4.5530    -5.0569    -0.6477 H       
  37 H37           -3.0540    -4.7047     0.2453 H       
  38 H38            1.9889     4.8867    -0.9507 H       
  39 H39            1.2306     5.4868     0.5437 H       
  40 H40            2.6152     4.3718     0.6339 H       
@<TRIPOS>BOND
   1    1    2 ar
   2    1    6 ar
   3    1   18 1
   4    2    3 ar
   5    2   10 1
   6    3    4 ar
   7    3   21 1
   8    4    5 ar
   9    4   22 1
  10    5    6 ar
  11    5    7 1
  12    6   16 1
  13    7    8 1
  14    7    9 1
  15    7   23 1
  16    8   24 1
  17    8   25 1
  18    8   26 1
  19    9   27 1
  20    9   28 1
  21    9   29 1
  22   10   11 1
  23   10   12 1
  24   11   14 2
  25   11   30 1
  26   12   13 2
  27   12   31 1
  28   13   14 1
  29   13   15 1
  30   15   19 1
  31   15   32 1
  32   15   33 1
  33   16   17 1
  34   16   20 1
  35   17   18 2
  36   17   34 1
  37   19   35 1
  38   19   36 1
  39   19   37 1
  40   20   38 1
  41   20   39 1
  42   20   40 1

#	End of record

