#	Name: ASD01420038
#	Creating user name:	WinNT
#	Creation time:	15. 06. 2019 19:20

#	Modifying user name:	WinNT
#	Modification time:	15. 06. 2019 19:20

#	Program:	/corina/corina34_cracker 3.40 0067  02.08.2006

@<TRIPOS>MOLECULE
ASD01420038
  36   37    0    0    0
SMALL
NO_CHARGES


@<TRIPOS>ATOM
   1 C1            -0.0180     1.4763     0.0102 C.3     
   2 N2             0.0021    -0.0041     0.0020 N.3     
   3 C3             1.2743    -0.3381    -0.6776 C.3     
   4 C4             2.1986     0.8277    -0.4096 C.ar    
   5 C5             3.5760     0.9560    -0.5065 C.ar    
   6 C6             4.1819     2.1641    -0.1939 C.ar    
   7 C7             3.4120     3.2367     0.2134 C.ar    
   8 C8             2.0390     3.1069     0.3094 C.ar    
   9 C9             1.4319     1.9046    -0.0014 C.ar    
  10 O10            4.3312    -0.1005    -0.9067 O.3     
  11 C11            5.7435     0.1037    -0.9837 C.3     
  12 C12            6.4209    -1.1870    -1.4484 C.3     
  13 O13            6.0090    -1.4871    -2.7834 O.3     
  14 C14            6.5875    -2.6804    -3.3158 C.3     
  15 C15            6.0789    -2.9016    -4.7417 C.3     
  16 O16            6.5472    -1.8462    -5.5836 O.3     
  17 C17            6.1261    -1.9580    -6.9446 C.3     
  18 H18           -0.5283     1.8508    -0.8772 H       
  19 H19           -0.5112     1.8412     0.9111 H       
  20 H20           -0.0131    -0.3711     0.9418 H       
  21 H21            1.6938    -1.2544    -0.2623 H       
  22 H22            1.1105    -0.4501    -1.7494 H       
  23 H23            5.2545     2.2660    -0.2684 H       
  24 H24            3.8833     4.1773     0.4572 H       
  25 H25            1.4394     3.9466     0.6283 H       
  26 H26            5.9569     0.9023    -1.6943 H       
  27 H27            6.1247     0.3806    -0.0008 H       
  28 H28            7.5030    -1.0592    -1.4221 H       
  29 H29            6.1355    -2.0054    -0.7875 H       
  30 H30            7.6732    -2.5836    -3.3282 H       
  31 H31            6.3056    -3.5298    -2.6936 H       
  32 H32            6.4492    -3.8562    -5.1156 H       
  33 H33            4.9889    -2.9097    -4.7415 H       
  34 H34            6.4974    -2.8930    -7.3642 H       
  35 H35            5.0371    -1.9465    -6.9901 H       
  36 H36            6.5226    -1.1198    -7.5176 H       
@<TRIPOS>BOND
   1    1    2 1
   2    1    9 1
   3    1   18 1
   4    1   19 1
   5    2    3 1
   6    2   20 1
   7    3    4 1
   8    3   21 1
   9    3   22 1
  10    4    5 ar
  11    4    9 ar
  12    5    6 ar
  13    5   10 1
  14    6    7 ar
  15    6   23 1
  16    7    8 ar
  17    7   24 1
  18    8    9 ar
  19    8   25 1
  20   10   11 1
  21   11   12 1
  22   11   26 1
  23   11   27 1
  24   12   13 1
  25   12   28 1
  26   12   29 1
  27   13   14 1
  28   14   15 1
  29   14   30 1
  30   14   31 1
  31   15   16 1
  32   15   32 1
  33   15   33 1
  34   16   17 1
  35   17   34 1
  36   17   35 1
  37   17   36 1

#	End of record

