#	Name: ASD06660088
#	Creating user name:	WinNT
#	Creation time:	15. 06. 2019 21:08

#	Modifying user name:	WinNT
#	Modification time:	15. 06. 2019 21:08

#	Program:	/corina/corina34_cracker 3.40 0067  02.08.2006

@<TRIPOS>MOLECULE
ASD06660088
  71   74    0    0    0
SMALL
NO_CHARGES


@<TRIPOS>ATOM
   1 C1            -0.1015     1.3779     0.0415 C.2     
   2 C2            -0.0407    -0.1278     0.0256 C.3     
   3 C3            -0.7572    -0.6541    -1.2196 C.3     
   4 O4             0.9195     2.0239     0.0345 O.2     
   5 O5            -1.2901     2.0015     0.0578 O.3     
   6 C6            -0.8038    -2.1596    -1.1736 C.ar    
   7 C7            -1.8721    -2.7987    -0.5714 C.ar    
   8 C8            -1.9180    -4.1782    -0.5275 C.ar    
   9 C9            -0.8895    -4.9240    -1.0892 C.ar    
  10 C10            0.1822    -4.2789    -1.6934 C.ar    
  11 C11            0.2190    -2.8991    -1.7388 C.ar    
  12 N12           -0.9325    -6.3194    -1.0462 N.3     
  13 C13            0.2488    -6.9026    -1.6951 C.3     
  14 C14            0.0985    -8.4242    -1.7586 C.3     
  15 C15           -0.0521    -8.9771    -0.3387 C.3     
  16 C16           -1.2607    -8.3179     0.3317 C.3     
  17 C17           -1.0710    -6.7994     0.3346 C.3     
  18 C18           -0.2637   -10.4912    -0.3993 C.3     
  19 N19           -0.2883   -11.0356     0.9606 N.pl3   
  20 C20           -0.4694   -12.3993     1.1601 C.ar    
  21 C21           -0.6267   -13.2416     0.0639 C.ar    
  22 C22           -0.8061   -14.5962     0.2769 C.ar    
  23 C23           -0.8222   -15.0652     1.5841 C.ar    
  24 C24           -0.6601   -14.1729     2.6245 C.ar    
  25 N25           -0.4853   -12.8858     2.3913 N.ar    
  26 C26            2.0481    -0.6729     1.1556 C.2     
  27 C27            3.4584    -1.1081     1.1326 C.ar    
  28 C28            4.2103    -1.1098     2.3106 C.ar    
  29 C29            5.5254    -1.5165     2.2851 C.ar    
  30 C30            6.1056    -1.9246     1.0895 C.ar    
  31 C31            5.3613    -1.9243    -0.0841 C.ar    
  32 C32            4.0433    -1.5249    -0.0657 C.ar    
  33 O33            1.5082    -0.4164     2.2143 O.2     
  34 N34            1.3590    -0.5597     0.0029 N.am    
  35 O35            7.4025    -2.3238     1.0682 O.3     
  36 C36            7.9355    -2.7304    -0.1938 C.3     
  37 F37            7.8549    -1.6665    -1.0986 F       
  38 F38            9.2734    -3.1074    -0.0353 F       
  39 F39            7.2001    -3.8154    -0.6829 F       
  40 C40            3.5826    -0.6667     3.6071 C.3     
  41 H41           -0.5277    -0.5205     0.9182 H       
  42 H42           -1.7730    -0.2598    -1.2482 H       
  43 H43           -0.2181    -0.3343    -2.1113 H       
  44 H44           -1.2785     2.9684     0.0675 H       
  45 H45           -2.6713    -2.2182    -0.1346 H       
  46 H46           -2.7524    -4.6767    -0.0567 H       
  47 H47            0.9835    -4.8557    -2.1311 H       
  48 H48            1.0495    -2.3969    -2.2125 H       
  49 H49            0.3419    -6.5043    -2.7055 H       
  50 H50            1.1404    -6.6493    -1.1215 H       
  51 H51           -0.7853    -8.6785    -2.3438 H       
  52 H52            0.9824    -8.8580    -2.2262 H       
  53 H53            0.8479    -8.7568     0.2353 H       
  54 H54           -2.1658    -8.5705    -0.2205 H       
  55 H55           -1.3478    -8.6758     1.3576 H       
  56 H56           -0.1732    -6.5466     0.8988 H       
  57 H57           -1.9364    -6.3262     0.7985 H       
  58 H58           -1.2109   -10.7062    -0.8939 H       
  59 H59            0.5511   -10.9498    -0.9596 H       
  60 H60           -0.1782   -10.4445     1.7217 H       
  61 H61           -0.6093   -12.8429    -0.9397 H       
  62 H62           -0.9311   -15.2741    -0.5545 H       
  63 H63           -0.9606   -16.1174     1.7844 H       
  64 H64           -0.6720   -14.5334     3.6425 H       
  65 H65            6.1072    -1.5181     3.1950 H       
  66 H66            5.8156    -2.2421    -1.0109 H       
  67 H67            3.4642    -1.5292    -0.9773 H       
  68 H68            1.7897    -0.7644    -0.8418 H       
  69 H69            3.0329    -1.4984     4.0476 H       
  70 H70            4.3624    -0.3412     4.2957 H       
  71 H71            2.8987     0.1602     3.4156 H       
@<TRIPOS>BOND
   1    1    2 1
   2    1    4 2
   3    1    5 1
   4    2    3 1
   5    2   34 1
   6    2   41 1
   7    3    6 1
   8    3   42 1
   9    3   43 1
  10    5   44 1
  11    6    7 ar
  12    6   11 ar
  13    7    8 ar
  14    7   45 1
  15    8    9 ar
  16    8   46 1
  17    9   10 ar
  18    9   12 1
  19   10   11 ar
  20   10   47 1
  21   11   48 1
  22   12   13 1
  23   12   17 1
  24   13   14 1
  25   13   49 1
  26   13   50 1
  27   14   15 1
  28   14   51 1
  29   14   52 1
  30   15   16 1
  31   15   18 1
  32   15   53 1
  33   16   17 1
  34   16   54 1
  35   16   55 1
  36   17   56 1
  37   17   57 1
  38   18   19 1
  39   18   58 1
  40   18   59 1
  41   19   20 1
  42   19   60 1
  43   20   21 ar
  44   20   25 ar
  45   21   22 ar
  46   21   61 1
  47   22   23 ar
  48   22   62 1
  49   23   24 ar
  50   23   63 1
  51   24   25 ar
  52   24   64 1
  53   26   27 1
  54   26   33 2
  55   26   34 am
  56   27   28 ar
  57   27   32 ar
  58   28   29 ar
  59   28   40 1
  60   29   30 ar
  61   29   65 1
  62   30   31 ar
  63   30   35 1
  64   31   32 ar
  65   31   66 1
  66   32   67 1
  67   34   68 1
  68   35   36 1
  69   36   37 1
  70   36   38 1
  71   36   39 1
  72   40   69 1
  73   40   70 1
  74   40   71 1

#	End of record

