#	Name: ASD00601001
#	Creating user name:	WinNT
#	Creation time:	15. 06. 2019 18:36

#	Modifying user name:	WinNT
#	Modification time:	15. 06. 2019 18:36

#	Program:	/corina/corina34_cracker 3.40 0067  02.08.2006

@<TRIPOS>MOLECULE
ASD00601001
  40   41    0    0    0
SMALL
NO_CHARGES


@<TRIPOS>ATOM
   1 C1            -0.0167     1.3781     0.0096 C.ar    
   2 C2             0.0021    -0.0041     0.0020 C.ar    
   3 C3             1.2084    -0.6789    -0.0132 C.ar    
   4 C4             2.3960     0.0285    -0.0212 C.ar    
   5 C5             2.3773     1.4107    -0.0145 C.ar    
   6 C6             1.1710     2.0855     0.0021 C.ar    
   7 C7            -1.2926    -0.7753     0.0108 C.3     
   8 O8            -1.7153    -1.0118    -1.3336 O.3     
   9 C9            -2.8747    -1.7004    -1.5039 C.ar    
  10 C10           -3.5904    -2.1391    -0.3997 C.ar    
  11 C11           -4.7687    -2.8389    -0.5749 C.ar    
  12 C12           -5.2347    -3.1021    -1.8504 C.ar    
  13 C13           -4.5223    -2.6654    -2.9532 C.ar    
  14 C14           -3.3469    -1.9605    -2.7823 C.ar    
  15 C15           -2.5713    -1.4850    -3.9838 C.3     
  16 N16           -1.4520    -2.4018    -4.2382 N.3     
  17 C17           -0.6717    -1.9688    -5.4051 C.3     
  18 C18            0.7567    -2.5051    -5.2910 C.3     
  19 C19           -1.3194    -2.5103    -6.6811 C.3     
  20 Br20          -6.8474    -4.0608    -2.0872 Br      
  21 H21           -0.9592     1.9054     0.0170 H       
  22 H22            1.2231    -1.7588    -0.0184 H       
  23 H23            3.3386    -0.4987    -0.0324 H       
  24 H24            3.3051     1.9634    -0.0205 H       
  25 H25            1.1563     3.1654     0.0069 H       
  26 H26           -1.1443    -1.7285     0.5181 H       
  27 H27           -2.0550    -0.1993     0.5353 H       
  28 H28           -3.2266    -1.9341     0.5963 H       
  29 H29           -5.3261    -3.1810     0.2846 H       
  30 H30           -4.8877    -2.8722    -3.9482 H       
  31 H31           -3.2273    -1.4623    -4.8540 H       
  32 H32           -2.1849    -0.4837    -3.7938 H       
  33 H33           -0.8643    -2.4899    -3.4228 H       
  34 H34           -0.6489    -0.8797    -5.4432 H       
  35 H35            0.7339    -3.5942    -5.2530 H       
  36 H36            1.3356    -2.1838    -6.1569 H       
  37 H37            1.2181    -2.1193    -4.3820 H       
  38 H38           -1.3422    -3.5994    -6.6431 H       
  39 H39           -2.3370    -2.1282    -6.7624 H       
  40 H40           -0.7404    -2.1890    -7.5470 H       
@<TRIPOS>BOND
   1    1    2 ar
   2    1    6 ar
   3    1   21 1
   4    2    3 ar
   5    2    7 1
   6    3    4 ar
   7    3   22 1
   8    4    5 ar
   9    4   23 1
  10    5    6 ar
  11    5   24 1
  12    6   25 1
  13    7    8 1
  14    7   26 1
  15    7   27 1
  16    8    9 1
  17    9   10 ar
  18    9   14 ar
  19   10   11 ar
  20   10   28 1
  21   11   12 ar
  22   11   29 1
  23   12   13 ar
  24   12   20 1
  25   13   14 ar
  26   13   30 1
  27   14   15 1
  28   15   16 1
  29   15   31 1
  30   15   32 1
  31   16   17 1
  32   16   33 1
  33   17   18 1
  34   17   19 1
  35   17   34 1
  36   18   35 1
  37   18   36 1
  38   18   37 1
  39   19   38 1
  40   19   39 1
  41   19   40 1

#	End of record

