#	Name: ASD08150156
#	Creating user name:	WinNT
#	Creation time:	15. 06. 2019 21:15

#	Modifying user name:	WinNT
#	Modification time:	15. 06. 2019 21:15

#	Program:	/corina/corina34_cracker 3.40 0067  02.08.2006

@<TRIPOS>MOLECULE
ASD08150156
  43   43    0    0    0
SMALL
NO_CHARGES


@<TRIPOS>ATOM
   1 O1            -0.2518     1.5307    -0.6753 O.3     
   2 C2            -0.4967     0.1191    -0.4966 C.3     
   3 N3             0.5175    -0.5696    -1.3184 N.am    
   4 C4             1.6441     0.3761    -1.4500 C.3     
   5 C5             1.1912     1.6366    -0.6809 C.3     
   6 C6             0.4327    -1.8085    -1.8422 C.2     
   7 O7             1.3033    -2.2145    -2.5862 O.2     
   8 O8            -0.6168    -2.5963    -1.5410 O.3     
   9 C9            -0.3323    -0.2634     0.9757 C.3     
  10 C10           -1.9025    -0.2389    -0.9827 C.3     
  11 C11            2.9079    -0.2092    -0.8167 C.3     
  12 C12            4.0150     0.8468    -0.8181 C.3     
  13 C13            2.6082    -0.6319     0.6229 C.3     
  14 O14            3.3342    -1.3473    -1.5683 O.3     
  15 C15           -0.6424    -3.9182    -2.1411 C.3     
  16 C16            0.5977    -4.7007    -1.7045 C.3     
  17 C17           -1.9004    -4.6607    -1.6860 C.3     
  18 C18           -0.6516    -3.7861    -3.6654 C.3     
  19 H19            1.8194     0.6140    -2.4991 H       
  20 H20            1.5076     2.5392    -1.2037 H       
  21 H21            1.5806     1.6253     0.3371 H       
  22 H22           -1.1439     0.1737     1.5574 H       
  23 H23           -0.3581    -1.3486     1.0742 H       
  24 H24            0.6222     0.1123     1.3443 H       
  25 H25           -2.0036     0.0319    -2.0336 H       
  26 H26           -2.0653    -1.3104    -0.8663 H       
  27 H27           -2.6403     0.3066    -0.3943 H       
  28 H28            3.7287     1.6744    -0.1691 H       
  29 H29            4.9412     0.4027    -0.4534 H       
  30 H30            4.1640     1.2156    -1.8329 H       
  31 H31            1.7780    -1.3382     0.6288 H       
  32 H32            3.4906    -1.1048     1.0539 H       
  33 H33            2.3424     0.2462     1.2116 H       
  34 H34            2.8145    -2.1456    -1.4020 H       
  35 H35            0.6043    -4.7948    -0.6186 H       
  36 H36            0.5784    -5.6931    -2.1551 H       
  37 H37            1.4939    -4.1718    -2.0288 H       
  38 H38           -2.7839    -4.1032    -1.9970 H       
  39 H39           -1.9196    -5.6530    -2.1365 H       
  40 H40           -1.8938    -4.7547    -0.6000 H       
  41 H41            0.2446    -3.2572    -3.9897 H       
  42 H42           -0.6709    -4.7785    -4.1160 H       
  43 H43           -1.5351    -3.2287    -3.9765 H       
@<TRIPOS>BOND
   1    1    2 1
   2    1    5 1
   3    2    3 1
   4    2    9 1
   5    2   10 1
   6    3    4 1
   7    3    6 am
   8    4    5 1
   9    4   11 1
  10    4   19 1
  11    5   20 1
  12    5   21 1
  13    6    7 2
  14    6    8 1
  15    8   15 1
  16    9   22 1
  17    9   23 1
  18    9   24 1
  19   10   25 1
  20   10   26 1
  21   10   27 1
  22   11   12 1
  23   11   13 1
  24   11   14 1
  25   12   28 1
  26   12   29 1
  27   12   30 1
  28   13   31 1
  29   13   32 1
  30   13   33 1
  31   14   34 1
  32   15   16 1
  33   15   18 1
  34   15   17 1
  35   16   35 1
  36   16   36 1
  37   16   37 1
  38   17   38 1
  39   17   39 1
  40   17   40 1
  41   18   41 1
  42   18   42 1
  43   18   43 1

#	End of record

