#	Name: ASD00360001
#	Creating user name:	WinNT
#	Creation time:	15. 06. 2019 18:35

#	Modifying user name:	WinNT
#	Modification time:	15. 06. 2019 18:35

#	Program:	/corina/corina34_cracker 3.40 0067  02.08.2006

@<TRIPOS>MOLECULE
ASD00360001
  29   29    0    0    0
SMALL
NO_CHARGES


@<TRIPOS>ATOM
   1 C1            -0.0189     1.5406     0.0105 C.3     
   2 C2             0.0021    -0.0041     0.0020 C.3     
   3 C3            -1.1953    -0.3908    -0.8946 C.3     
   4 C4            -1.7980     0.9658    -1.3218 C.3     
   5 O5            -0.7088     1.9069    -1.2042 O.3     
   6 C6             1.4080     2.0926    -0.0001 C.3     
   7 C7            -2.2896     0.8982    -2.7691 C.3     
   8 O8            -0.7488    -1.1226    -2.0380 O.3     
   9 O9            -0.1773    -0.5145     1.3246 O.3     
  10 O10           -2.8682     1.3319    -0.4484 O.3     
  11 O11           -2.8426     2.1615    -3.1438 O.3     
  12 O12            1.3691     3.5156     0.1253 O.3     
  13 P13            2.6939     4.4302     0.1504 P.3     
  14 O14            3.6003     3.9564     1.2202 O.2     
  15 O15            3.4428     4.3292    -1.2713 O.3     
  16 O16            2.2838     5.9611     0.4334 O.3     
  17 H17           -0.5606     1.9079     0.8821 H       
  18 H18            0.9346    -0.3710    -0.4268 H       
  19 H19           -1.9241    -0.9714    -0.3291 H       
  20 H20            1.9675     1.6695     0.8341 H       
  21 H21            1.8946     1.8237    -0.9377 H       
  22 H22           -1.4535     0.6584    -3.4260 H       
  23 H23           -3.0541     0.1263    -2.8575 H       
  24 H24           -0.3076    -1.9560    -1.8239 H       
  25 H25           -0.1724    -1.4801     1.3776 H       
  26 H26           -3.2847     2.1762    -0.6691 H       
  27 H27           -3.1750     2.1916    -4.0514 H       
  28 H28            2.9066     4.6241    -2.0201 H       
  29 H29            3.0342     6.5704     0.4622 H       
@<TRIPOS>BOND
   1    1    2 1
   2    1    6 1
   3    1    5 1
   4    1   17 1
   5    2    3 1
   6    2    9 1
   7    2   18 1
   8    3    4 1
   9    3    8 1
  10    3   19 1
  11    4    5 1
  12    4    7 1
  13    4   10 1
  14    6   12 1
  15    6   20 1
  16    6   21 1
  17    7   11 1
  18    7   22 1
  19    7   23 1
  20    8   24 1
  21    9   25 1
  22   10   26 1
  23   11   27 1
  24   12   13 1
  25   13   14 2
  26   13   15 1
  27   13   16 1
  28   15   28 1
  29   16   29 1

#	End of record

