#	Name: ASD03092584
#	Creating user name:	WinNT
#	Creation time:	15. 06. 2019 20:32

#	Modifying user name:	WinNT
#	Modification time:	15. 06. 2019 20:32

#	Program:	/corina/corina34_cracker 3.40 0067  02.08.2006

@<TRIPOS>MOLECULE
ASD03092584
  41   44    0    0    0
SMALL
NO_CHARGES


@<TRIPOS>ATOM
   1 N1            -0.0204     1.6518     0.0111 N.am    
   2 S2             0.0021    -0.0041     0.0020 S.o2    
   3 O3            -0.5249    -0.4194     1.2546 O.2     
   4 O4            -0.5488    -0.4060    -1.2447 O.2     
   5 C5             1.6920    -0.5027    -0.0168 C.ar    
   6 C6             2.3439    -0.6860    -1.2224 C.ar    
   7 C7             3.6685    -1.0768    -1.2403 C.ar    
   8 C8             4.3456    -1.2852    -0.0463 C.ar    
   9 C9             3.6885    -1.0999     1.1625 C.ar    
  10 C10            2.3651    -0.7044     1.1741 C.ar    
  11 N11            5.6898    -1.6822    -0.0613 N.pl3   
  12 C12            6.2213    -2.7087    -0.7869 C.2     
  13 N13            7.5008    -2.7975    -0.5618 N.2     
  14 C14            7.8732    -1.8395     0.3181 C.ar    
  15 C15            9.0895    -1.4625     0.9149 C.ar    
  16 N16            9.0869    -0.4368     1.7642 N.ar    
  17 C17            7.9752     0.2150     2.0443 C.ar    
  18 N18            6.8138    -0.1025     1.5096 N.ar    
  19 C19            6.7169    -1.1059     0.6476 C.ar    
  20 C20           10.3424    -2.1887     0.6069 C.ar    
  21 C21           10.3303    -3.2577    -0.2887 C.ar    
  22 C22           11.5011    -3.9307    -0.5718 C.ar    
  23 C23           12.6867    -3.5481     0.0301 C.ar    
  24 C24           12.7078    -2.4896     0.9197 C.ar    
  25 C25           11.5433    -1.8025     1.2077 C.ar    
  26 F26           11.5652    -0.7646     2.0722 F       
  27 C27           13.9608    -4.2887    -0.2849 C.3     
  28 F28           14.5923    -3.6862    -1.3782 F       
  29 F29           14.8108    -4.2474     0.8255 F       
  30 F30           13.6621    -5.6199    -0.5943 F       
  31 H31            0.8130     2.1481     0.0058 H       
  32 H32           -0.8669     2.1253     0.0177 H       
  33 H33            1.8167    -0.5237    -2.1509 H       
  34 H34            4.1770    -1.2204    -2.1823 H       
  35 H35            4.2125    -1.2616     2.0929 H       
  36 H36            1.8546    -0.5561     2.1142 H       
  37 H37            5.6629    -3.3528    -1.4500 H       
  38 H38            8.0186     1.0407     2.7391 H       
  39 H39            9.4060    -3.5584    -0.7595 H       
  40 H40           11.4919    -4.7588    -1.2651 H       
  41 H41           13.6363    -2.1963     1.3867 H       
@<TRIPOS>BOND
   1    1    2 am
   2    1   31 1
   3    1   32 1
   4    2    3 2
   5    2    4 2
   6    2    5 1
   7    5   10 ar
   8    5    6 ar
   9    6    7 ar
  10    6   33 1
  11    7    8 ar
  12    7   34 1
  13    8    9 ar
  14    8   11 1
  15    9   10 ar
  16    9   35 1
  17   10   36 1
  18   11   19 1
  19   11   12 1
  20   12   13 2
  21   12   37 1
  22   13   14 1
  23   14   19 ar
  24   14   15 ar
  25   15   16 ar
  26   15   20 1
  27   16   17 ar
  28   17   18 ar
  29   17   38 1
  30   18   19 ar
  31   20   25 ar
  32   20   21 ar
  33   21   22 ar
  34   21   39 1
  35   22   23 ar
  36   22   40 1
  37   23   24 ar
  38   23   27 1
  39   24   25 ar
  40   24   41 1
  41   25   26 1
  42   27   28 1
  43   27   29 1
  44   27   30 1

#	End of record

