#	Name: ASD01840488
#	Creating user name:	WinNT
#	Creation time:	15. 06. 2019 19:37

#	Modifying user name:	WinNT
#	Modification time:	15. 06. 2019 19:37

#	Program:	/corina/corina34_cracker 3.40 0067  02.08.2006

@<TRIPOS>MOLECULE
ASD01840488
  54   57    0    0    0
SMALL
NO_CHARGES


@<TRIPOS>ATOM
   1 C1             2.3189    -1.2580    -0.1049 C.ar    
   2 C2             3.0540    -2.3032    -0.6196 C.ar    
   3 N3             4.3739    -2.2366    -0.6506 N.ar    
   4 N4             5.0247    -1.2230    -0.2155 N.ar    
   5 C5             3.0180    -0.1295     0.3806 C.ar    
   6 C6             2.5194     1.0997     0.9692 C.2     
   7 C7             4.4171    -0.1537     0.3038 C.ar    
   8 S8             5.0818     1.3373     0.9563 S.3     
   9 C9             3.4917     1.9752     1.3260 C.2     
  10 C10            0.8134    -1.3134    -0.0664 C.3     
  11 C11            2.3511    -3.5268    -1.1486 C.3     
  12 N12            1.1672     1.3567     1.1504 N.pl3   
  13 C13            3.2457     3.2805     1.9373 C.2     
  14 O14            2.1049     3.6442     2.1578 O.2     
  15 N15            4.2818     4.0811     2.2567 N.am    
  16 C16            4.4447     5.4121     2.8607 C.3     
  17 C17            5.7474     4.0053     2.1607 C.3     
  18 C18            5.7652     5.5411     2.0889 C.3     
  19 O19            5.6234     6.0720     0.7698 O.3     
  20 C20            6.8975     6.1904     2.8871 C.3     
  21 C21            5.1474     7.4189     0.7334 C.3     
  22 C22            8.1938     6.1277     2.0768 C.3     
  23 C23            9.3099     6.8393     2.8443 C.3     
  24 O24           10.5460     6.6807     2.1437 O.3     
  25 C25           11.6524     7.3370     2.7703 C.3     
  26 C26           11.3359     8.8310     2.9003 C.3     
  27 C27           10.0015     8.9921     3.6366 C.3     
  28 O28            9.0000     8.2306     2.9550 O.3     
  29 H29            0.4885    -1.6962     0.9011 H       
  30 H30            0.4090    -0.3122    -0.2155 H       
  31 H31            0.4537    -1.9719    -0.8570 H       
  32 H32            2.1378    -3.3932    -2.2092 H       
  33 H33            2.9899    -4.3996    -1.0136 H       
  34 H34            1.4173    -3.6726    -0.6057 H       
  35 H35            0.5220     0.6366     1.0727 H       
  36 H36            0.8677     2.2564     1.3548 H       
  37 H37            3.6856     6.1278     2.5451 H       
  38 H38            4.5751     5.3848     3.9426 H       
  39 H39            6.2212     3.6072     3.0579 H       
  40 H40            6.0982     3.5226     1.2485 H       
  41 H41            6.6471     7.2313     3.0921 H       
  42 H42            7.0311     5.6568     3.8282 H       
  43 H43            5.0669     7.7480    -0.3026 H       
  44 H44            4.1676     7.4710     1.2083 H       
  45 H45            5.8444     8.0652     1.2668 H       
  46 H46            8.4711     5.0861     1.9150 H       
  47 H47            8.0449     6.6177     1.1147 H       
  48 H48            9.3988     6.4065     3.8407 H       
  49 H49           11.8163     6.9112     3.7602 H       
  50 H50           12.5471     7.2052     2.1619 H       
  51 H51           12.1268     9.3239     3.4657 H       
  52 H52           11.2617     9.2762     1.9082 H       
  53 H53           10.1028     8.6290     4.6593 H       
  54 H54            9.7155    10.0438     3.6478 H       
@<TRIPOS>BOND
   1    1    2 ar
   2    1    5 ar
   3    1   10 1
   4    2   11 1
   5    2    3 ar
   6    3    4 ar
   7    4    7 ar
   8    5    7 ar
   9    5    6 1
  10    6    9 2
  11    6   12 1
  12    7    8 1
  13    8    9 1
  14    9   13 1
  15   10   29 1
  16   10   30 1
  17   10   31 1
  18   11   32 1
  19   11   33 1
  20   11   34 1
  21   12   35 1
  22   12   36 1
  23   13   14 2
  24   13   15 am
  25   15   16 1
  26   15   17 1
  27   16   18 1
  28   16   37 1
  29   16   38 1
  30   17   18 1
  31   17   39 1
  32   17   40 1
  33   18   19 1
  34   18   20 1
  35   19   21 1
  36   20   22 1
  37   20   41 1
  38   20   42 1
  39   21   43 1
  40   21   44 1
  41   21   45 1
  42   22   23 1
  43   22   46 1
  44   22   47 1
  45   23   24 1
  46   23   28 1
  47   23   48 1
  48   24   25 1
  49   25   26 1
  50   25   49 1
  51   25   50 1
  52   26   27 1
  53   26   51 1
  54   26   52 1
  55   27   28 1
  56   27   53 1
  57   27   54 1

#	End of record

