#	Name: ASD01170005
#	Creating user name:	WinNT
#	Creation time:	15. 06. 2019 19:06

#	Modifying user name:	WinNT
#	Modification time:	15. 06. 2019 19:06

#	Program:	/corina/corina34_cracker 3.40 0067  02.08.2006

@<TRIPOS>MOLECULE
ASD01170005
  39   42    0    0    0
SMALL
NO_CHARGES


@<TRIPOS>ATOM
   1 C1            -0.0167     1.3784     0.0096 C.ar    
   2 C2             0.0021    -0.0041     0.0020 C.ar    
   3 C3            -1.1787    -0.7179     0.0095 C.ar    
   4 C4            -2.4005    -0.0485     0.0248 C.ar    
   5 C5            -2.4061     1.3409     0.0327 C.ar    
   6 C6            -1.2268     2.0505     0.0306 C.ar    
   7 H7            -1.2455     3.1303     0.0372 H       
   8 H8             0.9463    -0.5282    -0.0102 H       
   9 H9            -1.1558    -1.7976     0.0031 H       
  10 N10           -3.7078    -0.5361     0.0342 N.am    
  11 C11           -4.6190     0.4513     0.0484 C.2     
  12 C12           -3.8581     1.7601     0.0488 C.3     
  13 O13           -4.1500     2.5087     1.2304 O.3     
  14 C14           -4.1943     2.5760    -1.2011 C.3     
  15 O15           -5.8246     0.3190     0.0590 O.2     
  16 C16           -5.6661     2.8997    -1.2088 C.2     
  17 C17           -6.2405     3.6803    -2.3123 C.ar    
  18 O18           -6.3762     2.5157    -0.3036 O.2     
  19 C19           -7.6077     3.9824    -2.3217 C.ar    
  20 C20           -8.1425     4.7166    -3.3608 C.ar    
  21 C21           -7.3207     5.1567    -4.4004 C.ar    
  22 C22           -5.9640     4.8569    -4.3907 C.ar    
  23 C23           -5.4218     4.1297    -3.3553 C.ar    
  24 O24           -9.4177     5.1390    -3.6058 O.3     
  25 C25           -9.2932     6.1847    -4.5876 C.3     
  26 O26           -8.0826     5.8516    -5.2919 O.3     
  27 C27            1.2769     2.1515     0.0014 C.3     
  28 H28           -3.9330    -1.4796     0.0307 H       
  29 H29           -5.0814     2.7523     1.3216 H       
  30 H30           -3.6187     3.5016    -1.1965 H       
  31 H31           -3.9449     1.9975    -2.0906 H       
  32 H32           -8.2427     3.6412    -1.5175 H       
  33 H33           -5.3316     5.1992    -5.1966 H       
  34 H34           -4.3668     3.8988    -3.3518 H       
  35 H35          -10.1459     6.1758    -5.2666 H       
  36 H36           -9.1990     7.1562    -4.1025 H       
  37 H37            1.5789     2.3434    -1.0282 H       
  38 H38            1.1371     3.0991     0.5217 H       
  39 H39            2.0502     1.5712     0.5048 H       
@<TRIPOS>BOND
   1    1    2 ar
   2    1   27 1
   3    1    6 ar
   4    2    3 ar
   5    2    8 1
   6    3    4 ar
   7    3    9 1
   8    4    5 ar
   9    4   10 1
  10    5    6 ar
  11    5   12 1
  12    6    7 1
  13   10   11 am
  14   10   28 1
  15   11   12 1
  16   11   15 2
  17   12   13 1
  18   12   14 1
  19   13   29 1
  20   14   16 1
  21   14   30 1
  22   14   31 1
  23   16   17 1
  24   16   18 2
  25   17   19 ar
  26   17   23 ar
  27   19   20 ar
  28   19   32 1
  29   20   21 ar
  30   20   24 1
  31   21   22 ar
  32   21   26 1
  33   22   23 ar
  34   22   33 1
  35   23   34 1
  36   24   25 1
  37   25   26 1
  38   25   35 1
  39   25   36 1
  40   27   37 1
  41   27   38 1
  42   27   39 1

#	End of record

