#	Name: ASD07000013
#	Creating user name:	WinNT
#	Creation time:	15. 06. 2019 21:08

#	Modifying user name:	WinNT
#	Modification time:	15. 06. 2019 21:08

#	Program:	/corina/corina34_cracker 3.40 0067  02.08.2006

@<TRIPOS>MOLECULE
ASD07000013
  45   46    0    0    0
SMALL
NO_CHARGES


@<TRIPOS>ATOM
   1 C1             0.0209     1.5129     0.0436 C.3     
   2 C2            -0.5667     1.0218     6.6351 C.3     
   3 C3            -0.1050     1.1116     5.1651 C.3     
   4 C4             0.0026    -0.3232     4.6954 C.ar    
   5 C5             0.0622    -0.8482     3.4105 C.ar    
   6 C6             1.1952     0.5092     1.9280 C.2     
   7 C7             2.5163     1.8370     0.3695 C.3     
   8 C8             2.7034     3.2168     1.0037 C.3     
   9 N9             1.2428     1.2645     0.8127 N.am    
  10 O10            0.0244    -0.0171     2.3354 O.3     
  11 O11            2.2087     0.3032     2.5659 O.2     
  12 C12            0.1606    -2.2183     3.2230 C.ar    
  13 C13            0.1994    -3.0613     4.3164 C.ar    
  14 C14            0.1401    -2.5385     5.5941 C.ar    
  15 C15            0.0413    -1.1705     5.7862 C.ar    
  16 C16           -0.0376    -0.3631     7.0642 C.3     
  17 C17            2.3981     0.3264     6.8888 C.3     
  18 N18            1.2914    -0.2350     7.6674 N.pl3   
  19 C19            1.5021    -0.6458     8.9775 C.2     
  20 C20            2.6993    -0.5304     9.5209 C.2     
  21 C21            2.9279    -0.9761    10.9422 C.3     
  22 H22           -0.4648     2.4155     0.4146 H       
  23 H23            0.2739     1.6427    -1.0086 H       
  24 H24           -0.6557     0.6653     0.1527 H       
  25 H25           -0.1128     1.8123     7.2328 H       
  26 H26           -1.6540     1.0592     6.7028 H       
  27 H27           -0.8420     1.6503     4.5694 H       
  28 H28            0.8656     1.6038     5.1029 H       
  29 H29            2.5131     1.9336    -0.7162 H       
  30 H30            3.3339     1.1834     0.6737 H       
  31 H31            2.7067     3.1202     2.0894 H       
  32 H32            3.6510     3.6427     0.6740 H       
  33 H33            1.8858     3.8703     0.6995 H       
  34 H34            0.2072    -2.6256     2.2238 H       
  35 H35            0.2756    -4.1289     4.1727 H       
  36 H36            0.1706    -3.2001     6.4472 H       
  37 H37           -0.7284    -0.8313     7.7654 H       
  38 H38            2.4302     1.4068     7.0298 H       
  39 H39            3.3378    -0.1119     7.2248 H       
  40 H40            2.2497     0.1021     5.8325 H       
  41 H41            0.6862    -1.0597     9.5515 H       
  42 H42            3.5152    -0.1165     8.9469 H       
  43 H43            2.2799    -0.4082    11.6098 H       
  44 H44            2.6997    -2.0382    11.0311 H       
  45 H45            3.9694    -0.8043    11.2138 H       
@<TRIPOS>BOND
   1    1    9 1
   2    1   22 1
   3    1   23 1
   4    1   24 1
   5    2    3 1
   6    2   16 1
   7    2   25 1
   8    2   26 1
   9    3    4 1
  10    3   27 1
  11    3   28 1
  12    4    5 ar
  13    4   15 ar
  14    5   10 1
  15    5   12 ar
  16    6    9 am
  17    6   10 1
  18    6   11 2
  19    7    8 1
  20    7    9 1
  21    7   29 1
  22    7   30 1
  23    8   31 1
  24    8   32 1
  25    8   33 1
  26   12   13 ar
  27   12   34 1
  28   13   14 ar
  29   13   35 1
  30   14   15 ar
  31   14   36 1
  32   15   16 1
  33   16   18 1
  34   16   37 1
  35   17   18 1
  36   17   38 1
  37   17   39 1
  38   17   40 1
  39   18   19 1
  40   19   20 2
  41   19   41 1
  42   20   21 1
  43   20   42 1
  44   21   43 1
  45   21   44 1
  46   21   45 1

#	End of record

