#	Name: ASD01917635
#	Creating user name:	WinNT
#	Creation time:	15. 06. 2019 20:09

#	Modifying user name:	WinNT
#	Modification time:	15. 06. 2019 20:09

#	Program:	/corina/corina34_cracker 3.40 0067  02.08.2006

@<TRIPOS>MOLECULE
ASD01917635
  40   43    0    0    0
SMALL
NO_CHARGES


@<TRIPOS>ATOM
   1 C1             0.1342     1.5268    -0.2790 C.ar    
   2 C2             0.2169     0.1859    -0.6776 C.ar    
   3 C3             1.4379    -0.3860    -0.8709 C.ar    
   4 C4             2.6089     0.3474    -0.6764 C.ar    
   5 C5             2.5625     1.6536    -0.2883 C.ar    
   6 C6             1.3194     2.2756    -0.0808 C.ar    
   7 N7             1.2456     3.5558     0.2991 N.ar    
   8 C8             0.0941     4.1520     0.4979 C.ar    
   9 C9            -1.1149     3.4892     0.3260 C.ar    
  10 C10           -1.1180     2.1589    -0.0734 C.ar    
  11 C11           -2.3876     1.4235    -0.2731 C.ar    
  12 C12           -2.7877     0.4549     0.6478 C.ar    
  13 C13           -3.9713    -0.2269     0.4576 C.ar    
  14 C14           -4.7626     0.0484    -0.6465 C.ar    
  15 C15           -4.3693     1.0094    -1.5644 C.ar    
  16 C16           -3.1905     1.7011    -1.3798 C.ar    
  17 S17           -2.6358     4.3337     0.6061 S.o2    
  18 O18           -2.2942     5.6576     0.9932 O.2     
  19 O19           -3.4688     4.0398    -0.5070 O.2     
  20 C20           -3.3969     3.5860     2.0084 C.ar    
  21 C21           -3.0136     3.9584     3.2831 C.ar    
  22 C22           -3.6109     3.3717     4.3846 C.ar    
  23 C23           -4.5923     2.4126     4.2099 C.ar    
  24 C24           -4.9759     2.0406     2.9339 C.ar    
  25 C25           -4.3812     2.6315     1.8332 C.ar    
  26 F26           -5.9210    -0.6225    -0.8287 F       
  27 Cl27          -3.1285     3.8387     5.9855 Cl      
  28 F28            3.8064    -0.2457    -0.8750 F       
  29 Cl29          -6.2070     0.8366     2.7138 Cl      
  30 H30           -0.6830    -0.3914    -0.8304 H       
  31 H31            1.5004    -1.4195    -1.1781 H       
  32 H32            3.4775     2.2082    -0.1410 H       
  33 H33            0.0857     5.1876     0.8042 H       
  34 H34           -2.1713     0.2392     1.5080 H       
  35 H35           -4.2818    -0.9770     1.1699 H       
  36 H36           -4.9892     1.2202    -2.4233 H       
  37 H37           -2.8870     2.4530    -2.0932 H       
  38 H38           -2.2474     4.7072     3.4193 H       
  39 H39           -5.0586     1.9540     5.0694 H       
  40 H40           -4.6835     2.3442     0.8370 H       
@<TRIPOS>BOND
   1    1    2 ar
   2    1    6 ar
   3    1   10 ar
   4    2    3 ar
   5    2   30 1
   6    3    4 ar
   7    3   31 1
   8    4    5 ar
   9    4   28 1
  10    5    6 ar
  11    5   32 1
  12    6    7 ar
  13    7    8 ar
  14    8    9 ar
  15    8   33 1
  16    9   10 ar
  17    9   17 1
  18   10   11 1
  19   11   12 ar
  20   11   16 ar
  21   12   13 ar
  22   12   34 1
  23   13   14 ar
  24   13   35 1
  25   14   15 ar
  26   14   26 1
  27   15   16 ar
  28   15   36 1
  29   16   37 1
  30   17   18 2
  31   17   20 1
  32   17   19 2
  33   20   21 ar
  34   20   25 ar
  35   21   22 ar
  36   21   38 1
  37   22   23 ar
  38   22   27 1
  39   23   24 ar
  40   23   39 1
  41   24   25 ar
  42   24   29 1
  43   25   40 1

#	End of record

