#	Name: ASD00100138
#	Creating user name:	WinNT
#	Creation time:	15. 06. 2019 18:30

#	Modifying user name:	WinNT
#	Modification time:	15. 06. 2019 18:30

#	Program:	/corina/corina34_cracker 3.40 0067  02.08.2006

@<TRIPOS>MOLECULE
ASD00100138
  35   37    0    0    0
SMALL
NO_CHARGES


@<TRIPOS>ATOM
   1 N1            -0.9286    -1.3492    -2.3717 N.pl3   
   2 C2            -0.4615    -1.3529    -1.0686 C.2     
   3 N3             0.6825    -1.8530    -0.6696 N.2     
   4 C4             0.8020    -1.6767     0.6711 C.2     
   5 C5            -0.3159    -1.0423     1.1091 C.2     
   6 N6            -1.1120    -0.8326     0.0074 N.pl3   
   7 C7             1.9464    -2.1008     1.5065 C.2     
   8 C8             3.0490    -2.7299     1.0543 C.2     
   9 C9             3.9843    -3.0248     2.0267 C.2     
  10 C10            3.6547    -2.6427     3.2628 C.2     
  11 S11            2.0825    -1.8552     3.2428 S.3     
  12 C12           -2.4203    -0.1736    -0.0049 C.3     
  13 C13           -2.8256     0.1649     1.4066 C.ar    
  14 C14           -2.4757     1.3859     1.9531 C.ar    
  15 C15           -2.8478     1.6966     3.2491 C.ar    
  16 C16           -3.5698     0.7875     4.0000 C.ar    
  17 C17           -3.9211    -0.4336     3.4582 C.ar    
  18 C18           -3.5547    -0.7456     2.1567 C.ar    
  19 O19           -3.9047    -1.9441     1.6200 O.3     
  20 C20           -4.6554    -2.8324     2.4503 C.3     
  21 Cl21          -1.5686     2.5293     1.0131 Cl      
  22 H22           -0.3633    -1.6727    -3.0905 H       
  23 H23           -1.8227    -1.0269    -2.5656 H       
  24 H24           -0.5358    -0.7541     2.1264 H       
  25 H25            3.1898    -2.9838     0.0141 H       
  26 H26            4.9137    -3.5277     1.8037 H       
  27 H27            4.2636    -2.7919     4.1422 H       
  28 H28           -2.3610     0.7408    -0.5951 H       
  29 H29           -3.1600    -0.8426    -0.4447 H       
  30 H30           -2.5735     2.6505     3.6748 H       
  31 H31           -3.8591     1.0322     5.0114 H       
  32 H32           -4.4848    -1.1432     4.0457 H       
  33 H33           -4.0783    -3.0691     3.3442 H       
  34 H34           -5.5924    -2.3557     2.7384 H       
  35 H35           -4.8682    -3.7499     1.9017 H       
@<TRIPOS>BOND
   1    1    2 1
   2    1   22 1
   3    1   23 1
   4    2    3 2
   5    2    6 1
   6    3    4 1
   7    4    5 2
   8    4    7 1
   9    5    6 1
  10    5   24 1
  11    6   12 1
  12    7    8 2
  13    7   11 1
  14    8    9 1
  15    8   25 1
  16    9   10 2
  17    9   26 1
  18   10   11 1
  19   10   27 1
  20   12   13 1
  21   12   28 1
  22   12   29 1
  23   13   14 ar
  24   13   18 ar
  25   14   15 ar
  26   14   21 1
  27   15   16 ar
  28   15   30 1
  29   16   17 ar
  30   16   31 1
  31   17   18 ar
  32   17   32 1
  33   18   19 1
  34   19   20 1
  35   20   33 1
  36   20   34 1
  37   20   35 1

#	End of record

