#	Name: ASD04590399
#	Creating user name:	WinNT
#	Creation time:	15. 06. 2019 20:50

#	Modifying user name:	WinNT
#	Modification time:	15. 06. 2019 20:50

#	Program:	/corina/corina34_cracker 3.40 0067  02.08.2006

@<TRIPOS>MOLECULE
ASD04590399
  57   62    0    0    0
SMALL
NO_CHARGES


@<TRIPOS>ATOM
   1 C1            -0.0167     1.3832     0.0096 C.ar    
   2 C2             0.0021    -0.0041     0.0020 C.ar    
   3 C3             2.4020     0.0223    -0.0208 C.ar    
   4 C4             2.3769     1.4283    -0.0130 C.ar    
   5 C5             1.1624     2.0986     0.0022 C.ar    
   6 N6             3.7040    -0.3552    -0.0358 N.2     
   7 C7             4.4709     0.7083    -0.0376 C.2     
   8 N8             3.6969     1.8375    -0.0239 N.pl3   
   9 C9             5.9482     0.6906    -0.0524 C.2     
  10 C10            6.7655    -0.4630    -0.0672 C.2     
  11 C11            8.0575    -0.0542    -0.0776 C.2     
  12 N12            8.0646     1.3049    -0.0697 N.pl3   
  13 N13            6.7361     1.7481    -0.0597 N.2     
  14 N14            6.3181    -1.7953    -0.0705 N.am    
  15 C15            7.2100    -2.8056    -0.0852 C.2     
  16 O16            8.4011    -2.5646    -0.0956 O.2     
  17 O17            6.7810    -4.0830    -0.0884 O.3     
  18 C18            1.1969    -0.6870    -0.0131 C.ar    
  19 C19            7.3476    -6.4021    -0.1076 C.ar    
  20 C20            7.7308    -5.0516    -0.1035 C.ar    
  21 N21            9.0049    -4.7169    -0.1146 N.ar    
  22 C22            9.9411    -5.6734    -0.1294 C.ar    
  23 C23            9.5512    -7.0357    -0.1329 C.ar    
  24 N24            8.2509    -7.3531    -0.1206 N.ar    
  25 C25           -1.2962    -0.7693     0.0109 C.3     
  26 N26           -1.7318    -1.0105    -1.3712 N.3     
  27 C27           -2.8604    -1.9518    -1.4111 C.3     
  28 C28           -3.3198    -2.1280    -2.8609 C.3     
  29 O29           -2.2162    -2.5719    -3.6548 O.3     
  30 C30           -1.0996    -1.6784    -3.6392 C.3     
  31 C31           -0.6176    -1.4976    -2.1974 C.3     
  32 C32           11.3084    -5.3486    -0.1420 C.ar    
  33 C33           12.2381    -6.3425    -0.1573 C.ar    
  34 C34           11.8547    -7.6823    -0.1608 C.ar    
  35 C35           10.5401    -8.0343    -0.1489 C.ar    
  36 H36           -0.9614     1.9066     0.0170 H       
  37 H37            1.1403     3.1784     0.0079 H       
  38 H38            4.0156     2.7537    -0.0221 H       
  39 H39            8.9271    -0.6946    -0.0899 H       
  40 H40            8.8530     1.8700    -0.0737 H       
  41 H41            5.3674    -1.9876    -0.0622 H       
  42 H42            1.2037    -1.7669    -0.0186 H       
  43 H43            6.2991    -6.6605    -0.0942 H       
  44 H44           -1.1522    -1.7232     0.5182 H       
  45 H45           -2.0559    -0.1898     0.5354 H       
  46 H46           -2.5454    -2.9149    -1.0095 H       
  47 H47           -3.6832    -1.5591    -0.8137 H       
  48 H48           -4.1188    -2.8683    -2.9020 H       
  49 H49           -3.6850    -1.1757    -3.2453 H       
  50 H50           -0.2928    -2.0935    -4.2433 H       
  51 H51           -1.4002    -0.7130    -4.0462 H       
  52 H52            0.1967    -0.7734    -2.1739 H       
  53 H53           -0.2668    -2.4535    -1.8083 H       
  54 H54           11.6201    -4.3146    -0.1399 H       
  55 H55           13.2879    -6.0892    -0.1674 H       
  56 H56           12.6118    -8.4525    -0.1730 H       
  57 H57           10.2579    -9.0767    -0.1517 H       
@<TRIPOS>BOND
   1    1    2 ar
   2    1    5 ar
   3    1   36 1
   4    2   18 ar
   5    2   25 1
   6    3    4 ar
   7    3    6 1
   8    3   18 ar
   9    4    5 ar
  10    4    8 1
  11    5   37 1
  12    6    7 2
  13    7    8 1
  14    7    9 1
  15    8   38 1
  16    9   10 1
  17    9   13 2
  18   10   11 2
  19   10   14 1
  20   11   12 1
  21   11   39 1
  22   12   13 1
  23   12   40 1
  24   14   15 am
  25   14   41 1
  26   15   16 2
  27   15   17 1
  28   17   20 1
  29   18   42 1
  30   19   20 ar
  31   19   24 ar
  32   19   43 1
  33   20   21 ar
  34   21   22 ar
  35   22   23 ar
  36   22   32 ar
  37   23   24 ar
  38   23   35 ar
  39   25   26 1
  40   25   44 1
  41   25   45 1
  42   26   27 1
  43   26   31 1
  44   27   28 1
  45   27   46 1
  46   27   47 1
  47   28   29 1
  48   28   48 1
  49   28   49 1
  50   29   30 1
  51   30   31 1
  52   30   50 1
  53   30   51 1
  54   31   52 1
  55   31   53 1
  56   32   33 ar
  57   32   54 1
  58   33   34 ar
  59   33   55 1
  60   34   35 ar
  61   34   56 1
  62   35   57 1

#	End of record

