#	Name: ASD03430669
#	Creating user name:	WinNT
#	Creation time:	15. 06. 2019 20:41

#	Modifying user name:	WinNT
#	Modification time:	15. 06. 2019 20:41

#	Program:	/corina/corina34_cracker 3.40 0067  02.08.2006

@<TRIPOS>MOLECULE
ASD03430669
  55   61    0    0    0
SMALL
NO_CHARGES


@<TRIPOS>ATOM
   1 C1             0.4118     0.3105     2.0609 C.ar    
   2 C2             0.1336    -1.0324     1.8693 C.ar    
   3 C3             1.0510    -1.9914     2.2451 C.ar    
   4 C4             2.2595    -1.6255     2.8303 C.ar    
   5 C5             2.5386    -0.2751     3.0170 C.ar    
   6 C6             1.6230     0.6890     2.6355 C.ar    
   7 O7             3.0045    -2.7218     3.1517 O.3     
   8 C8             1.0581    -3.4935     2.1492 C.3     
   9 C9             2.5280    -3.8561     2.4025 C.3     
  10 C10           -0.7472    -4.9065     2.4054 C.ar    
  11 C11            0.1431    -4.1354     3.1493 C.ar    
  12 C12            0.5872    -3.9804     0.8088 C.2     
  13 N13           -0.4612    -4.7946     1.0427 N.am    
  14 O14            1.0582    -3.6967    -0.2723 O.2     
  15 C15            0.0526    -4.0903     4.5222 C.ar    
  16 C16           -0.9286    -4.8145     5.1765 C.ar    
  17 C17           -1.8174    -5.5834     4.4482 C.ar    
  18 C18           -1.7308    -5.6321     3.0721 C.ar    
  19 C19           -1.2132    -5.4824    -0.0098 C.3     
  20 C20           -2.4052    -4.6481    -0.4024 C.2     
  21 C21           -3.3323    -4.9615    -1.3284 C.2     
  22 O22           -4.2329    -3.9669    -1.3890 O.3     
  23 C23           -3.8984    -3.0056    -0.5070 C.2     
  24 C24           -2.7645    -3.3952     0.1339 C.2     
  25 C25           -4.6385    -1.7480    -0.2725 C.ar    
  26 C26           -5.7984    -1.4717    -0.9986 C.ar    
  27 C27           -6.4851    -0.2966    -0.7749 C.ar    
  28 C28           -6.0262     0.6082     0.1676 C.ar    
  29 C29           -4.8760     0.3399     0.8906 C.ar    
  30 C30           -4.1838    -0.8344     0.6800 C.ar    
  31 Cl31          -6.8959     2.0850     0.4434 Cl      
  32 O32           -0.3084     1.4355     1.7773 O.3     
  33 C33            0.2954     2.4850     2.5566 C.3     
  34 O34            1.6613     2.0521     2.7109 O.3     
  35 C35           -3.3547    -6.2188    -2.1589 C.3     
  36 F36           -3.3724    -7.3347    -1.3153 F       
  37 F37           -4.4983    -6.2252    -2.9647 F       
  38 F38           -2.2141    -6.2637    -2.9678 F       
  39 H39           -0.8046    -1.3298     1.4245 H       
  40 H40            3.4762     0.0222     3.4629 H       
  41 H41            3.0701    -3.9542     1.4620 H       
  42 H42            2.6053    -4.7696     2.9922 H       
  43 H43            0.7477    -3.4890     5.0892 H       
  44 H44           -0.9997    -4.7793     6.2536 H       
  45 H45           -2.5828    -6.1488     4.9589 H       
  46 H46           -2.4287    -6.2350     2.5100 H       
  47 H47           -0.5710    -5.6298    -0.8781 H       
  48 H48           -1.5528    -6.4501     0.3594 H       
  49 H49           -2.2374    -2.8477     0.9012 H       
  50 H50           -6.1571    -2.1765    -1.7341 H       
  51 H51           -7.3824    -0.0816    -1.3362 H       
  52 H52           -4.5226     1.0498     1.6238 H       
  53 H53           -3.2869    -1.0425     1.2444 H       
  54 H54            0.2545     3.4327     2.0197 H       
  55 H55           -0.1941     2.5718     3.5266 H       
@<TRIPOS>BOND
   1    1    2 ar
   2    1    6 ar
   3    1   32 1
   4    2    3 ar
   5    2   39 1
   6    3    4 ar
   7    3    8 1
   8    4    5 ar
   9    4    7 1
  10    5    6 ar
  11    5   40 1
  12    6   34 1
  13    7    9 1
  14    8    9 1
  15    8   11 1
  16    8   12 1
  17    9   41 1
  18    9   42 1
  19   10   11 ar
  20   10   13 1
  21   10   18 ar
  22   11   15 ar
  23   12   13 am
  24   12   14 2
  25   13   19 1
  26   15   16 ar
  27   15   43 1
  28   16   17 ar
  29   16   44 1
  30   17   18 ar
  31   17   45 1
  32   18   46 1
  33   19   20 1
  34   19   47 1
  35   19   48 1
  36   20   21 2
  37   20   24 1
  38   21   22 1
  39   21   35 1
  40   22   23 1
  41   23   24 2
  42   23   25 1
  43   24   49 1
  44   25   26 ar
  45   25   30 ar
  46   26   27 ar
  47   26   50 1
  48   27   28 ar
  49   27   51 1
  50   28   29 ar
  51   28   31 1
  52   29   30 ar
  53   29   52 1
  54   30   53 1
  55   32   33 1
  56   33   34 1
  57   33   54 1
  58   33   55 1
  59   35   36 1
  60   35   37 1
  61   35   38 1

#	End of record

