#	Name: ASD01810649
#	Creating user name:	WinNT
#	Creation time:	15. 06. 2019 19:25

#	Modifying user name:	WinNT
#	Modification time:	15. 06. 2019 19:25

#	Program:	/corina/corina34_cracker 3.40 0067  02.08.2006

@<TRIPOS>MOLECULE
ASD01810649
  60   64    0    0    0
SMALL
NO_CHARGES


@<TRIPOS>ATOM
   1 C1            -0.1657     1.9484     0.4817 C.ar    
   2 C2             0.0727     0.5729     0.4946 C.ar    
   3 C3            -0.9783    -0.3145     0.3697 C.ar    
   4 C4            -2.2703     0.1514     0.2308 C.ar    
   5 C5            -2.5227     1.5252     0.2162 C.ar    
   6 C6            -1.4676     2.4254     0.3476 C.ar    
   7 C7            -3.9071     2.0227     0.0669 C.2     
   8 C8             1.4800     0.0551     0.6448 C.3     
   9 C9            -3.4107    -0.8241     0.0941 C.3     
  10 N10           -4.4248     2.8610     0.9865 N.am    
  11 O11           -4.5782     1.6756    -0.8853 O.2     
  12 C12           -5.8252     3.2967     0.8981 C.3     
  13 C13           -3.6013     3.3517     2.0999 C.3     
  14 C14           -4.3248     3.0538     3.4170 C.3     
  15 C15           -5.7334     3.6499     3.3667 C.3     
  16 C16           -6.5192     2.9995     2.2310 C.3     
  17 C17           -6.4362     3.3882     4.6739 C.ar    
  18 C18           -6.8790     4.4469     5.4446 C.ar    
  19 C19           -7.5237     4.2069     6.6436 C.ar    
  20 C20           -7.7259     2.9082     7.0717 C.ar    
  21 C21           -7.2840     1.8495     6.3006 C.ar    
  22 C22           -6.6432     2.0894     5.0995 C.ar    
  23 C23            0.9612     2.8973     0.6161 C.2     
  24 N24            2.2162     2.5743     0.8556 N.2     
  25 C25            2.9483     3.6825     0.9097 C.2     
  26 C26            2.1320     4.7445     0.6995 C.2     
  27 N27            0.8783     4.2580     0.5072 N.pl3   
  28 C28            4.4310     3.8309     1.1538 C.3     
  29 C29            4.8364     5.2482     0.7238 C.3     
  30 O30            3.9239     6.1992     1.2787 O.3     
  31 C31            2.6144     6.1720     0.6938 C.3     
  32 H32           -0.7884    -1.3776     0.3803 H       
  33 H33           -1.6573     3.4886     0.3374 H       
  34 H34            1.7430     0.0191     1.7020 H       
  35 H35            1.5459    -0.9464     0.2197 H       
  36 H36            2.1688     0.7181     0.1213 H       
  37 H37           -3.7429    -1.1359     1.0843 H       
  38 H38           -4.2368    -0.3460    -0.4324 H       
  39 H39           -3.0775    -1.6962    -0.4686 H       
  40 H40           -5.8627     4.3674     0.6973 H       
  41 H41           -6.3266     2.7547     0.0962 H       
  42 H42           -2.6358     2.8459     2.0909 H       
  43 H43           -3.4538     4.4269     1.9992 H       
  44 H44           -4.3911     1.9752     3.5598 H       
  45 H45           -3.7713     3.4974     4.2446 H       
  46 H46           -5.6670     4.7249     3.1992 H       
  47 H47           -7.5302     3.4062     2.2087 H       
  48 H48           -6.5634     1.9220     2.3897 H       
  49 H49           -6.7210     5.4616     5.1101 H       
  50 H50           -7.8690     5.0341     7.2461 H       
  51 H51           -8.2290     2.7207     8.0089 H       
  52 H52           -7.4417     0.8348     6.6352 H       
  53 H53           -6.2979     1.2623     4.4970 H       
  54 H54            0.0775     4.7764     0.3317 H       
  55 H55            4.6468     3.6903     2.2130 H       
  56 H56            4.9779     3.0953     0.5639 H       
  57 H57            5.8440     5.4613     1.0808 H       
  58 H58            4.8154     5.3172    -0.3638 H       
  59 H59            2.6607     6.5411    -0.3308 H       
  60 H60            1.9362     6.7926     1.2795 H       
@<TRIPOS>BOND
   1    1    2 ar
   2    1   23 1
   3    1    6 ar
   4    2    3 ar
   5    2    8 1
   6    3    4 ar
   7    3   32 1
   8    4    5 ar
   9    4    9 1
  10    5    6 ar
  11    5    7 1
  12    6   33 1
  13    7   10 am
  14    7   11 2
  15    8   34 1
  16    8   35 1
  17    8   36 1
  18    9   37 1
  19    9   38 1
  20    9   39 1
  21   10   12 1
  22   10   13 1
  23   12   16 1
  24   12   40 1
  25   12   41 1
  26   13   14 1
  27   13   42 1
  28   13   43 1
  29   14   15 1
  30   14   44 1
  31   14   45 1
  32   15   16 1
  33   15   17 1
  34   15   46 1
  35   16   47 1
  36   16   48 1
  37   17   18 ar
  38   17   22 ar
  39   18   19 ar
  40   18   49 1
  41   19   20 ar
  42   19   50 1
  43   20   21 ar
  44   20   51 1
  45   21   22 ar
  46   21   52 1
  47   22   53 1
  48   23   24 2
  49   23   27 1
  50   24   25 1
  51   25   26 2
  52   25   28 1
  53   26   27 1
  54   26   31 1
  55   27   54 1
  56   28   29 1
  57   28   55 1
  58   28   56 1
  59   29   30 1
  60   29   57 1
  61   29   58 1
  62   30   31 1
  63   31   59 1
  64   31   60 1

#	End of record

