#	Name: ASD02198607
#	Creating user name:	WinNT
#	Creation time:	15. 06. 2019 20:19

#	Modifying user name:	WinNT
#	Modification time:	15. 06. 2019 20:19

#	Program:	/corina/corina34_cracker 3.40 0067  02.08.2006

@<TRIPOS>MOLECULE
ASD02198607
  42   45    0    0    0
SMALL
NO_CHARGES


@<TRIPOS>ATOM
   1 C1            -0.0439     1.5055    -0.1133 C.2     
   2 C2            -0.0746     0.1658     0.0995 C.2     
   3 N3             1.0691    -0.5366     0.2618 N.pl3   
   4 N4             2.2340    -0.0028     0.2276 N.2     
   5 C5             2.4064     1.2866     0.0290 C.2     
   6 C6             1.2214     2.1385    -0.1594 C.2     
   7 C7             0.9765    -1.9161     0.4783 C.ar    
   8 C8             1.5768    -2.4873     1.5961 C.ar    
   9 C9             1.4841    -3.8503     1.8080 C.ar    
  10 C10            0.7931    -4.6469     0.9067 C.ar    
  11 C11            0.1944    -4.0768    -0.2084 C.ar    
  12 C12            0.2804    -2.7156    -0.4194 C.ar    
  13 C13            3.7638     1.8679    -0.0037 C.2     
  14 N14            4.3063     2.6071    -1.0170 N.pl3   
  15 N15            5.6086     2.9575    -0.6395 N.2     
  16 C16            5.8521     2.4580     0.5459 C.2     
  17 C17            4.7194     1.7719     0.9840 C.2     
  18 C18            3.6734     2.9525    -2.2179 C.ar    
  19 C19            2.9055     2.0139    -2.8946 C.ar    
  20 O20            1.3252     3.3415    -0.3476 O.2     
  21 C21            3.8077     4.2357    -2.7312 C.ar    
  22 C22            3.1819     4.5733    -3.9153 C.ar    
  23 C23            2.4222     3.6349    -4.5895 C.ar    
  24 C24            2.2822     2.3577    -4.0782 C.ar    
  25 F25            2.2499    -1.7109     2.4732 F       
  26 O26            0.7027    -5.9869     1.1153 O.3     
  27 C27           -0.0236    -6.7466     0.1472 C.3     
  28 F28           -1.3432    -6.2857     0.0871 F       
  29 F29            0.5787    -6.6013    -1.1071 F       
  30 H30           -0.9549     2.0698    -0.2478 H       
  31 H31           -1.0249    -0.3459     0.1403 H       
  32 H32            1.9499    -4.2949     2.6751 H       
  33 H33           -0.3432    -4.6985    -0.9091 H       
  34 H34           -0.1859    -2.2732    -1.2873 H       
  35 H35            6.7757     2.5636     1.0956 H       
  36 H36            4.6131     1.2531     1.9252 H       
  37 H37            2.7961     1.0162    -2.4959 H       
  38 H38            4.4006     4.9692    -2.2050 H       
  39 H39            3.2857     5.5712    -4.3148 H       
  40 H40            1.9339     3.9012    -5.5152 H       
  41 H41            1.6883     1.6270    -4.6071 H       
  42 H42           -0.0189    -7.7985     0.4328 H       
@<TRIPOS>BOND
   1    1    2 2
   2    1    6 1
   3    1   30 1
   4    2    3 1
   5    2   31 1
   6    3    4 1
   7    3    7 1
   8    4    5 2
   9    5    6 1
  10    5   13 1
  11    6   20 2
  12    7    8 ar
  13    7   12 ar
  14    8    9 ar
  15    8   25 1
  16    9   10 ar
  17    9   32 1
  18   10   11 ar
  19   10   26 1
  20   11   12 ar
  21   11   33 1
  22   12   34 1
  23   13   14 1
  24   13   17 2
  25   14   15 1
  26   14   18 1
  27   15   16 2
  28   16   17 1
  29   16   35 1
  30   17   36 1
  31   18   21 ar
  32   18   19 ar
  33   19   24 ar
  34   19   37 1
  35   21   22 ar
  36   21   38 1
  37   22   23 ar
  38   22   39 1
  39   23   24 ar
  40   23   40 1
  41   24   41 1
  42   26   27 1
  43   27   28 1
  44   27   29 1
  45   27   42 1

#	End of record

