#	Name: ASD01948308
#	Creating user name:	WinNT
#	Creation time:	15. 06. 2019 20:14

#	Modifying user name:	WinNT
#	Modification time:	15. 06. 2019 20:14

#	Program:	/corina/corina34_cracker 3.40 0067  02.08.2006

@<TRIPOS>MOLECULE
ASD01948308
  55   56    0    0    0
SMALL
NO_CHARGES


@<TRIPOS>ATOM
   1 C1             1.1251     1.3577     1.4138 C.2     
   2 N2             1.0605     0.0107     1.6180 N.am    
   3 C3             1.8989    -0.6041     2.4723 C.2     
   4 C4             2.9365     1.5016     2.9733 C.2     
   5 C5             2.0379     2.1143     2.0672 C.2     
   6 C6             4.9438     2.8284     1.5612 C.ar    
   7 C7             4.8464     2.9725     2.9387 C.ar    
   8 N8             3.8770     2.2585     3.6515 N.pl3   
   9 C9             5.9021     3.5342     0.8599 C.ar    
  10 C10            6.7649     4.3845     1.5279 C.ar    
  11 C11            6.6718     4.5314     2.9002 C.ar    
  12 C12            5.7149     3.8279     3.6084 C.ar    
  13 N13            2.0932     3.5004     1.8472 N.am    
  14 S14            0.9145     4.2445     0.9531 S.o2    
  15 N15           -0.4641     4.2539     1.8705 N.am    
  16 O16            1.8207    -1.8122     2.6377 O.2     
  17 C17            0.0612    -0.7800     0.8954 C.3     
  18 F18            5.6234     3.9715     4.9487 F       
  19 I19            8.2161     5.4521     0.4586 I       
  20 C20           -0.7323     5.3720     2.7784 C.3     
  21 C21           -1.4157     3.1442     1.7742 C.3     
  22 O22            1.3130     5.6014     0.8137 O.2     
  23 O23            0.6536     3.3934    -0.1545 O.2     
  24 C24            2.8593     0.1333     3.1712 C.2     
  25 C25            0.6540    -1.2632    -0.4297 C.3     
  26 C26           -2.1730     3.0055     3.0964 C.3     
  27 C27           -2.4091     3.4208     0.6440 C.3     
  28 C28           -2.0859     5.9960     2.4331 C.3     
  29 C29           -0.7586     4.8626     4.2209 C.3     
  30 H30            0.4430     1.8256     0.7194 H       
  31 H31            4.2738     2.1616     1.0389 H       
  32 H32            3.8638     2.2937     4.6208 H       
  33 H33            5.9780     3.4217    -0.2115 H       
  34 H34            7.3471     5.1957     3.4189 H       
  35 H35            2.8217     4.0219     2.2190 H       
  36 H36           -0.2275    -1.6402     1.4994 H       
  37 H37           -0.8160    -0.1640     0.6978 H       
  38 H38            0.0514     6.1222     2.6722 H       
  39 H39           -0.8763     2.2202     1.5658 H       
  40 H40            3.5328    -0.3584     3.8576 H       
  41 H41           -0.0895    -1.8515    -0.9674 H       
  42 H42            0.9428    -0.4030    -1.0337 H       
  43 H43            1.5313    -1.8793    -0.2321 H       
  44 H44           -2.8815     3.8276     3.1972 H       
  45 H45           -2.7117     2.0580     3.1089 H       
  46 H46           -1.4653     3.0321     3.9249 H       
  47 H47           -1.8641     3.6056    -0.2817 H       
  48 H48           -3.0623     2.5577     0.5150 H       
  49 H49           -3.0088     4.2962     0.8935 H       
  50 H50           -2.0875     6.3050     1.3878 H       
  51 H51           -2.8761     5.2632     2.5965 H       
  52 H52           -2.2584     6.8644     3.0689 H       
  53 H53            0.0512     4.1482     4.3687 H       
  54 H54           -0.6322     5.7018     4.9049 H       
  55 H55           -1.7136     4.3750     4.4166 H       
@<TRIPOS>BOND
   1    1    2 1
   2    1    5 2
   3    1   30 1
   4    2    3 am
   5    2   17 1
   6    3   24 1
   7    3   16 2
   8    4    5 1
   9    4    8 1
  10    4   24 2
  11    5   13 1
  12    6    7 ar
  13    6    9 ar
  14    6   31 1
  15    7    8 1
  16    7   12 ar
  17    8   32 1
  18    9   10 ar
  19    9   33 1
  20   10   11 ar
  21   10   19 1
  22   11   12 ar
  23   11   34 1
  24   12   18 1
  25   13   14 am
  26   13   35 1
  27   14   15 am
  28   14   22 2
  29   14   23 2
  30   15   20 1
  31   15   21 1
  32   17   25 1
  33   17   36 1
  34   17   37 1
  35   20   28 1
  36   20   29 1
  37   20   38 1
  38   21   26 1
  39   21   27 1
  40   21   39 1
  41   24   40 1
  42   25   41 1
  43   25   42 1
  44   25   43 1
  45   26   44 1
  46   26   45 1
  47   26   46 1
  48   27   47 1
  49   27   48 1
  50   27   49 1
  51   28   50 1
  52   28   51 1
  53   28   52 1
  54   29   53 1
  55   29   54 1
  56   29   55 1

#	End of record

