#	Name: ASD03730226
#	Creating user name:	WinNT
#	Creation time:	15. 06. 2019 20:44

#	Modifying user name:	WinNT
#	Modification time:	15. 06. 2019 20:44

#	Program:	/corina/corina34_cracker 3.40 0067  02.08.2006

@<TRIPOS>MOLECULE
ASD03730226
  69   74    0    0    0
SMALL
NO_CHARGES


@<TRIPOS>ATOM
   1 N1            -0.4824     1.2000     1.3612 N.3     
   2 C2            -0.4147    -0.2785     1.4309 C.3     
   3 O3             0.6669    -0.6055     0.5400 O.3     
   4 C4             1.5023     0.4741     0.5264 C.ar    
   5 C5             0.8265     1.5904     1.0174 C.ar    
   6 C6             2.8219     0.5936     0.1241 C.ar    
   7 C7             3.4767     1.8191     0.2011 C.ar    
   8 C8             2.7857     2.9275     0.6811 C.ar    
   9 C9             1.4735     2.8130     1.0906 C.ar    
  10 O10            4.7624     2.1418    -0.1216 O.3     
  11 C11            3.7383     4.0908     0.6133 C.3     
  12 C12            4.8670     3.5691    -0.2867 C.3     
  13 N13            3.2262     6.2885     0.9751 N.am    
  14 C14            3.0938     5.3222     0.0446 C.2     
  15 C15            4.2436     4.4962     1.9659 C.ar    
  16 C16            4.9234     3.8288     2.9754 C.ar    
  17 C17            5.2612     4.5041     4.1477 C.ar    
  18 C18            4.9159     5.8329     4.2958 C.ar    
  19 C19            4.2398     6.4958     3.2919 C.ar    
  20 C20            3.8971     5.8345     2.1137 C.ar    
  21 O21            2.5594     5.4268    -1.0392 O.2     
  22 C22           -0.8791     1.7705     2.6554 C.3     
  23 C23            0.2580     1.5889     3.6629 C.3     
  24 C24           -0.1552     2.1831     5.0109 C.3     
  25 C25            0.9818     2.0015     6.0183 C.3     
  26 C26            0.5686     2.5957     7.3663 C.3     
  27 C27            5.2893     2.4004     2.8077 C.ar    
  28 C28            6.1792     2.0196     1.8055 C.ar    
  29 C29            6.5164     0.6898     1.6544 C.ar    
  30 C30            5.9722    -0.2642     2.4953 C.ar    
  31 C31            5.0879     0.1083     3.4916 C.ar    
  32 C32            4.7486     1.4360     3.6556 C.ar    
  33 C33            6.3438    -1.7147     2.3251 C.3     
  34 N34            7.5236    -2.0176     3.1462 N.3     
  35 C35            7.7744    -3.4642     3.1942 C.3     
  36 C36            8.7051    -1.2944     2.6571 C.3     
  37 H37           -0.1885    -0.6052     2.4459 H       
  38 H38           -1.3471    -0.7226     1.0823 H       
  39 H39            3.3475    -0.2716    -0.2523 H       
  40 H40            0.9494     3.6783     1.4688 H       
  41 H41            5.8358     3.9290     0.0595 H       
  42 H42            4.6961     3.8523    -1.3253 H       
  43 H43            2.8945     7.1936     0.8669 H       
  44 H44            5.7902     3.9900     4.9365 H       
  45 H45            5.1764     6.3568     5.2035 H       
  46 H46            3.9745     7.5348     3.4199 H       
  47 H47           -1.0912     2.8328     2.5345 H       
  48 H48           -1.7715     1.2610     3.0189 H       
  49 H49            0.4700     0.5266     3.7838 H       
  50 H50            1.1503     2.0985     3.2994 H       
  51 H51           -0.3673     3.2454     4.8900 H       
  52 H52           -1.0476     1.6735     5.3743 H       
  53 H53            1.1939     0.9392     6.1392 H       
  54 H54            1.8742     2.5110     5.6548 H       
  55 H55           -0.3237     2.0861     7.7298 H       
  56 H56            1.3787     2.4663     8.0841 H       
  57 H57            0.3566     3.6580     7.2454 H       
  58 H58            6.6041     2.7635     1.1480 H       
  59 H59            7.2060     0.3935     0.8779 H       
  60 H60            4.6655    -0.6408     4.1450 H       
  61 H61            4.0615     1.7263     4.4367 H       
  62 H62            5.5106    -2.3427     2.6407 H       
  63 H63            6.5703    -1.9112     1.2771 H       
  64 H64            7.9463    -3.8368     2.1844 H       
  65 H65            8.6531    -3.6605     3.8085 H       
  66 H66            6.9097    -3.9687     3.6253 H       
  67 H67            8.5170    -0.2215     2.6978 H       
  68 H68            9.5641    -1.5367     3.2828 H       
  69 H69            8.9108    -1.5885     1.6279 H       
@<TRIPOS>BOND
   1    1    2 1
   2    1    5 1
   3    1   22 1
   4    2    3 1
   5    2   37 1
   6    2   38 1
   7    3    4 1
   8    4    5 ar
   9    4    6 ar
  10    5    9 ar
  11    6    7 ar
  12    6   39 1
  13    7    8 ar
  14    7   10 1
  15    8    9 ar
  16    8   11 1
  17    9   40 1
  18   10   12 1
  19   11   12 1
  20   11   14 1
  21   11   15 1
  22   12   41 1
  23   12   42 1
  24   13   14 am
  25   13   20 1
  26   13   43 1
  27   14   21 2
  28   15   16 ar
  29   15   20 ar
  30   16   17 ar
  31   16   27 1
  32   17   18 ar
  33   17   44 1
  34   18   19 ar
  35   18   45 1
  36   19   20 ar
  37   19   46 1
  38   22   23 1
  39   22   47 1
  40   22   48 1
  41   23   24 1
  42   23   49 1
  43   23   50 1
  44   24   25 1
  45   24   51 1
  46   24   52 1
  47   25   26 1
  48   25   53 1
  49   25   54 1
  50   26   55 1
  51   26   56 1
  52   26   57 1
  53   27   28 ar
  54   27   32 ar
  55   28   29 ar
  56   28   58 1
  57   29   30 ar
  58   29   59 1
  59   30   31 ar
  60   30   33 1
  61   31   32 ar
  62   31   60 1
  63   32   61 1
  64   33   34 1
  65   33   62 1
  66   33   63 1
  67   34   35 1
  68   34   36 1
  69   35   64 1
  70   35   65 1
  71   35   66 1
  72   36   67 1
  73   36   68 1
  74   36   69 1

#	End of record

