#	Name: ASD07931870
#	Creating user name:	WinNT
#	Creation time:	15. 06. 2019 21:13

#	Modifying user name:	WinNT
#	Modification time:	15. 06. 2019 21:13

#	Program:	/corina/corina34_cracker 3.40 0067  02.08.2006

@<TRIPOS>MOLECULE
ASD07931870
  30   30    0    0    0
SMALL
NO_CHARGES


@<TRIPOS>ATOM
   1 C1            -0.0162     1.3436     0.0094 C.2     
   2 N2             0.0021    -0.0041     0.0020 N.am    
   3 O3             1.0277     1.9654     0.0028 O.2     
   4 O4            -1.1912     2.0008     0.0186 O.3     
   5 C5             1.2806    -0.7192    -0.0140 C.3     
   6 C6             1.8007    -0.8662     1.4173 C.3     
   7 O7            -0.2571    -2.5334    -0.8887 O.3     
   8 C8             1.0816    -2.1059    -0.6292 C.3     
   9 C9             0.5058    -2.1819    -2.0447 C.3     
  10 C10           -1.1349     3.4517     0.0262 C.3     
  11 C11           -0.4003     3.9401    -1.2239 C.3     
  12 C12           -2.5565     4.0172     0.0360 C.3     
  13 C13           -0.3885     3.9266     1.2745 C.3     
  14 H14           -0.8313    -0.5005     0.0073 H       
  15 H15            2.0030    -0.1587    -0.6074 H       
  16 H16            1.9425     0.1217     1.8556 H       
  17 H17            1.0783    -1.4267     2.0107 H       
  18 H18            2.7520    -1.3983     1.4054 H       
  19 H19            1.8086    -2.8630    -0.3353 H       
  20 H20            0.8506    -2.9894    -2.6906 H       
  21 H21            0.2653    -1.2445    -2.5462 H       
  22 H22           -0.9321     3.6018    -2.1132 H       
  23 H23           -0.3581     5.0293    -1.2182 H       
  24 H24            0.6125     3.5373    -1.2309 H       
  25 H25           -3.0798     3.6692     0.9266 H       
  26 H26           -2.5142     5.1064     0.0417 H       
  27 H27           -3.0883     3.6789    -0.8533 H       
  28 H28            0.6243     3.5237     1.2675 H       
  29 H29           -0.3462     5.0157     1.2802 H       
  30 H30           -0.9118     3.5786     2.1651 H       
@<TRIPOS>BOND
   1    1    2 am
   2    1    3 2
   3    1    4 1
   4    2    5 1
   5    2   14 1
   6    4   10 1
   7    5    6 1
   8    5    8 1
   9    5   15 1
  10    6   16 1
  11    6   17 1
  12    6   18 1
  13    7    9 1
  14    7    8 1
  15    8    9 1
  16    8   19 1
  17    9   20 1
  18    9   21 1
  19   10   11 1
  20   10   13 1
  21   10   12 1
  22   11   22 1
  23   11   23 1
  24   11   24 1
  25   12   25 1
  26   12   26 1
  27   12   27 1
  28   13   28 1
  29   13   29 1
  30   13   30 1

#	End of record

