#	Name: ASD01913270
#	Creating user name:	WinNT
#	Creation time:	15. 06. 2019 20:01

#	Modifying user name:	WinNT
#	Modification time:	15. 06. 2019 20:01

#	Program:	/corina/corina34_cracker 3.40 0067  02.08.2006

@<TRIPOS>MOLECULE
ASD01913270
  50   53    0    0    0
SMALL
NO_CHARGES


@<TRIPOS>ATOM
   1 C1            -0.0895     1.4762    -0.2764 C.3     
   2 N2            -0.0403     0.0111    -0.2448 N.am    
   3 C3             1.3431    -0.3748    -0.5406 C.3     
   4 C4             2.1363     0.8897    -0.7534 C.ar    
   5 C5             3.4726     1.0880    -1.0561 C.ar    
   6 C6             3.9669     2.3696    -1.2031 C.ar    
   7 C7             3.1261     3.4560    -1.0480 C.ar    
   8 C8             1.7925     3.2588    -0.7463 C.ar    
   9 C9             1.2966     1.9747    -0.5985 C.ar    
  10 C10           -1.0694    -0.8216     0.0083 C.2     
  11 C11           -0.8849    -2.2814    -0.1129 C.ar    
  12 C12           -1.9823    -3.1347    -0.0019 C.ar    
  13 C13           -1.8018    -4.5109    -0.1170 C.ar    
  14 C14           -0.5162    -5.0288    -0.3439 C.ar    
  15 C15            0.5682    -4.1707    -0.4526 C.ar    
  16 C16            0.3894    -2.8083    -0.3445 C.ar    
  17 O17           -2.1498    -0.3706     0.3362 O.2     
  18 C18           -2.9229    -5.3947    -0.0040 C.1     
  19 C19           -3.8420    -6.1192     0.0887 C.1     
  20 C20           -4.9631    -7.0029     0.2018 C.ar    
  21 C21           -4.7830    -8.3888     0.0861 C.ar    
  22 C22           -5.8737    -9.2344     0.1975 C.ar    
  23 C23           -7.1350    -8.7136     0.4214 C.ar    
  24 C24           -7.3177    -7.3465     0.5362 C.ar    
  25 C25           -6.2413    -6.4899     0.4336 C.ar    
  26 O26           -3.5439    -8.8995    -0.1347 O.3     
  27 C27           -3.4374   -10.3205    -0.2414 C.3     
  28 O28           -0.3348    -6.3683    -0.4563 O.3     
  29 C29            0.9994    -6.8253    -0.6867 C.3     
  30 H30           -0.7886     1.8059    -1.0450 H       
  31 H31           -0.4021     1.8565     0.6961 H       
  32 H32            1.7579    -0.9344     0.2978 H       
  33 H33            1.3715    -0.9850    -1.4433 H       
  34 H34            4.1297     0.2395    -1.1773 H       
  35 H35            5.0098     2.5228    -1.4385 H       
  36 H36            3.5116     4.4584    -1.1623 H       
  37 H37            1.1359     4.1076    -0.6249 H       
  38 H38           -2.9682    -2.7299     0.1729 H       
  39 H39            1.5558    -4.5714    -0.6267 H       
  40 H40            1.2373    -2.1455    -0.4349 H       
  41 H41           -5.7393   -10.3023     0.1090 H       
  42 H42           -7.9825    -9.3775     0.5067 H       
  43 H43           -8.3066    -6.9489     0.7107 H       
  44 H44           -6.3874    -5.4239     0.5279 H       
  45 H45           -3.7835   -10.7813     0.6838 H       
  46 H46           -4.0503   -10.6694    -1.0725 H       
  47 H47           -2.3972   -10.5948    -0.4169 H       
  48 H48            1.3735    -6.3999    -1.6180 H       
  49 H49            1.6385    -6.5115     0.1386 H       
  50 H50            1.0040    -7.9131    -0.7565 H       
@<TRIPOS>BOND
   1    1    2 1
   2    1    9 1
   3    1   30 1
   4    1   31 1
   5    2    3 1
   6    2   10 am
   7    3    4 1
   8    3   32 1
   9    3   33 1
  10    4    5 ar
  11    4    9 ar
  12    5    6 ar
  13    5   34 1
  14    6    7 ar
  15    6   35 1
  16    7    8 ar
  17    7   36 1
  18    8    9 ar
  19    8   37 1
  20   10   11 1
  21   10   17 2
  22   11   12 ar
  23   11   16 ar
  24   12   13 ar
  25   12   38 1
  26   13   14 ar
  27   13   18 1
  28   14   15 ar
  29   14   28 1
  30   15   16 ar
  31   15   39 1
  32   16   40 1
  33   18   19 3
  34   19   20 1
  35   20   21 ar
  36   20   25 ar
  37   21   22 ar
  38   21   26 1
  39   22   23 ar
  40   22   41 1
  41   23   24 ar
  42   23   42 1
  43   24   25 ar
  44   24   43 1
  45   25   44 1
  46   26   27 1
  47   27   45 1
  48   27   46 1
  49   27   47 1
  50   28   29 1
  51   29   48 1
  52   29   49 1
  53   29   50 1

#	End of record

