#	Name: ASD01230080
#	Creating user name:	WinNT
#	Creation time:	15. 06. 2019 19:11

#	Modifying user name:	WinNT
#	Modification time:	15. 06. 2019 19:11

#	Program:	/corina/corina34_cracker 3.40 0067  02.08.2006

@<TRIPOS>MOLECULE
ASD01230080
  45   48    0    0    0
SMALL
NO_CHARGES


@<TRIPOS>ATOM
   1 C1            -0.0168     1.3903     0.0097 C.ar    
   2 C2             0.0021    -0.0041     0.0020 C.ar    
   3 C3            -1.2688    -0.7651     0.0096 C.2     
   4 N4            -1.2481    -2.0871     0.0023 N.2     
   5 C5            -2.3836    -2.7873     0.0089 C.2     
   6 N6            -3.5987    -2.1538     0.0234 N.pl3   
   7 C7            -3.6550    -0.7881     0.0308 C.2     
   8 C8            -2.5029    -0.0789     0.0304 C.2     
   9 C9             1.2226    -0.6793    -0.0133 C.ar    
  10 C10            2.4028     0.0350    -0.0207 C.ar    
  11 C11            2.3776     1.4184    -0.0126 C.ar    
  12 C12            1.1705     2.0937     0.0021 C.ar    
  13 C13           -2.6462    -4.1655     0.0039 C.2     
  14 C14           -4.0374    -4.3210     0.0158 C.2     
  15 N15           -4.5960    -3.1357     0.0272 N.2     
  16 C16           -1.6413    -5.2509    -0.0116 C.ar    
  17 C17           -1.7104    -6.3084     0.9035 C.ar    
  18 C18           -0.7534    -7.2989     0.8532 C.ar    
  19 N19            0.2173    -7.2591    -0.0405 N.ar    
  20 C20            0.3192    -6.2806    -0.9209 C.ar    
  21 C21           -0.5981    -5.2523    -0.9455 C.ar    
  22 C22           -0.8158    -8.4429     1.8322 C.3     
  23 C23            1.4506    -6.2913    -1.9164 C.3     
  24 C24           -4.9854    -0.0804     0.0468 C.3     
  25 F25           -4.7777     1.3031     0.0519 F       
  26 F26           -5.7174    -0.4378    -1.0906 F       
  27 F27           -5.6963    -0.4494     1.1938 F       
  28 C28            3.7223    -0.6930    -0.0372 C.3     
  29 F29            4.1180    -0.9111    -1.3612 F       
  30 F30            4.6886     0.0784     0.6172 F       
  31 F31            3.5851    -1.9219     0.6170 F       
  32 H32           -0.9587     1.9187     0.0170 H       
  33 H33           -2.5269     1.0008     0.0362 H       
  34 H34            1.2436    -1.7591    -0.0189 H       
  35 H35            3.3042     1.9732    -0.0181 H       
  36 H36            1.1571     3.1736     0.0084 H       
  37 H37           -4.5642    -5.2638     0.0155 H       
  38 H38           -2.5013    -6.3471     1.6379 H       
  39 H39           -0.5088    -4.4552    -1.6688 H       
  40 H40           -1.4151    -9.2498     1.4105 H       
  41 H41            0.1926    -8.8055     2.0321 H       
  42 H42           -1.2699    -8.1010     2.7622 H       
  43 H43            1.1394    -6.8251    -2.8144 H       
  44 H44            1.7154    -5.2665    -2.1764 H       
  45 H45            2.3151    -6.7901    -1.4785 H       
@<TRIPOS>BOND
   1    1    2 ar
   2    1   12 ar
   3    1   32 1
   4    2    3 1
   5    2    9 ar
   6    3    4 2
   7    3    8 1
   8    4    5 1
   9    5    6 1
  10    5   13 2
  11    6    7 1
  12    6   15 1
  13    7   24 1
  14    7    8 2
  15    8   33 1
  16    9   10 ar
  17    9   34 1
  18   10   28 1
  19   10   11 ar
  20   11   12 ar
  21   11   35 1
  22   12   36 1
  23   13   14 1
  24   13   16 1
  25   14   15 2
  26   14   37 1
  27   16   17 ar
  28   16   21 ar
  29   17   18 ar
  30   17   38 1
  31   18   19 ar
  32   18   22 1
  33   19   20 ar
  34   20   21 ar
  35   20   23 1
  36   21   39 1
  37   22   40 1
  38   22   41 1
  39   22   42 1
  40   23   43 1
  41   23   44 1
  42   23   45 1
  43   24   25 1
  44   24   26 1
  45   24   27 1
  46   28   29 1
  47   28   30 1
  48   28   31 1

#	End of record

