#	Name: ASD01917739
#	Creating user name:	WinNT
#	Creation time:	15. 06. 2019 20:09

#	Modifying user name:	WinNT
#	Modification time:	15. 06. 2019 20:09

#	Program:	/corina/corina34_cracker 3.40 0067  02.08.2006

@<TRIPOS>MOLECULE
ASD01917739
  49   52    0    0    0
SMALL
NO_CHARGES


@<TRIPOS>ATOM
   1 C1             0.6794     0.4201    -0.1403 C.ar    
   2 C2             0.8211    -0.9587    -0.1260 C.ar    
   3 C3             2.0832    -1.5313    -0.1017 C.ar    
   4 C4             3.2061    -0.7314    -0.0916 C.ar    
   5 C5             3.0699     0.6594    -0.1064 C.ar    
   6 C6             1.7947     1.2307    -0.1309 C.ar    
   7 C7             4.2322     1.4958    -0.0955 C.1     
   8 C8             5.1851     2.1815    -0.0866 C.1     
   9 C9             6.3474     3.0178    -0.0757 C.ar    
  10 C10            6.2292     4.4140    -0.0903 C.ar    
  11 N11            7.3262     5.1493    -0.0791 N.ar    
  12 C12            8.5242     4.5842    -0.0545 C.ar    
  13 N13            8.6791     3.2685    -0.0401 N.ar    
  14 C14            7.6334     2.4620    -0.0444 C.ar    
  15 N15            9.6510     5.3950    -0.0439 N.am    
  16 C16            9.6421     6.7339    -0.0562 C.2     
  17 N17           10.8621     7.2856    -0.0418 N.am    
  18 C18           11.8761     6.2218    -0.0161 C.3     
  19 C19           11.0412     4.9186    -0.0112 C.3     
  20 C20           12.6205     6.2609     1.3335 C.3     
  21 C21           11.7646     5.3716     2.2686 C.3     
  22 C22           11.3195     4.2278     1.3387 C.3     
  23 H23           12.5498     6.2784    -0.8711 H       
  24 H24           11.2695     4.2818    -0.8659 H       
  25 C25           11.1423     8.7235    -0.0509 C.3     
  26 O26            8.6186     7.3896    -0.0790 O.2     
  27 C27           11.3924     9.1854    -1.4879 C.3     
  28 O28           10.1934     9.0377    -2.2512 O.3     
  29 C29           10.3193     9.4433    -3.6156 C.3     
  30 F30           -0.2755    -1.7477    -0.1354 F       
  31 H31           -0.3065     0.8603    -0.1635 H       
  32 H32            2.1871    -2.6062    -0.0903 H       
  33 H33            4.1889    -1.1787    -0.0719 H       
  34 H34            1.6830     2.3048    -0.1424 H       
  35 H35            5.2559     4.8817    -0.1107 H       
  36 H36            7.7674     1.3904    -0.0325 H       
  37 H37           13.6236     5.8478     1.2276 H       
  38 H38           12.6657     7.2813     1.7143 H       
  39 H39           12.3660     4.9854     3.0915 H       
  40 H40           10.9027     5.9232     2.6441 H       
  41 H41           10.4114     3.7594     1.7184 H       
  42 H42           12.1150     3.4899     1.2344 H       
  43 H43           10.2890     9.2626     0.3607 H       
  44 H44           12.0259     8.9254     0.5546 H       
  45 H45           11.6950    10.2325    -1.4856 H       
  46 H46           12.1826     8.5799    -1.9318 H       
  47 H47           11.0873     8.8431    -4.1037 H       
  48 H48            9.3672     9.3003    -4.1266 H       
  49 H49           10.5996    10.4958    -3.6574 H       
@<TRIPOS>BOND
   1    1    2 ar
   2    1    6 ar
   3    1   31 1
   4    2    3 ar
   5    2   30 1
   6    3    4 ar
   7    3   32 1
   8    4    5 ar
   9    4   33 1
  10    5    6 ar
  11    5    7 1
  12    6   34 1
  13    7    8 3
  14    8    9 1
  15    9   10 ar
  16    9   14 ar
  17   10   11 ar
  18   10   35 1
  19   11   12 ar
  20   12   13 ar
  21   12   15 1
  22   13   14 ar
  23   14   36 1
  24   15   16 am
  25   15   19 1
  26   16   17 am
  27   16   26 2
  28   17   18 1
  29   17   25 1
  30   18   19 1
  31   18   20 1
  32   18   23 1
  33   19   24 1
  34   19   22 1
  35   20   21 1
  36   20   37 1
  37   20   38 1
  38   21   22 1
  39   21   39 1
  40   21   40 1
  41   22   41 1
  42   22   42 1
  43   25   27 1
  44   25   43 1
  45   25   44 1
  46   27   28 1
  47   27   45 1
  48   27   46 1
  49   28   29 1
  50   29   47 1
  51   29   48 1
  52   29   49 1

#	End of record

