#	Name: ASD01890012
#	Creating user name:	WinNT
#	Creation time:	15. 06. 2019 19:50

#	Modifying user name:	WinNT
#	Modification time:	15. 06. 2019 19:50

#	Program:	/corina/corina34_cracker 3.40 0067  02.08.2006

@<TRIPOS>MOLECULE
ASD01890012
 113  115    0    0    0
SMALL
NO_CHARGES


@<TRIPOS>ATOM
   1 C1            -0.0184     1.5028     0.0103 C.3     
   2 C2             0.0021    -0.0041     0.0020 C.2     
   3 N3             0.2248    -0.6813     1.1458 N.am    
   4 C4             0.2447    -2.1461     1.1377 C.3     
   5 C5             1.0775    -2.6436     2.2910 C.2     
   6 N6             1.2386    -3.9677     2.4841 N.am    
   7 C7             1.4170     2.0324    -0.0006 C.3     
   8 N8            -0.7289     1.9894    -1.1798 N.3     
   9 C9             1.3994     3.5564     0.1335 C.3     
  10 C10            2.8348     4.0859     0.1227 C.3     
  11 N11            2.8178     5.5492     0.2514 N.3     
  12 O12           -0.1819    -0.6073    -1.0339 O.2     
  13 C13           -1.1840    -2.6763     1.2743 C.3     
  14 C14           -1.9844    -2.2818     0.0599 C.ar    
  15 C15           -2.0258    -3.1175    -1.0408 C.ar    
  16 O16            1.6027    -1.8524     3.0454 O.2     
  17 C17            2.0481    -4.4512     3.6053 C.3     
  18 C18            1.1957    -4.5202     4.8472 C.2     
  19 N19            0.5605    -5.6574     5.1655 N.am    
  20 C20            0.7808    -6.9851     4.5677 C.3     
  21 C21            1.4420    -6.8474     3.2037 C.3     
  22 C22            2.5912    -5.8426     3.2783 C.3     
  23 C23           -0.5268    -5.8195     6.1435 C.3     
  24 C24           -1.3580    -7.0369     5.6912 C.3     
  25 C25           -0.6461    -7.5595     4.4200 C.3     
  26 O26            1.0847    -3.5451     5.5598 O.2     
  27 C27           -1.3905    -4.5847     6.1626 C.2     
  28 O28           -1.1311    -3.6519     5.4324 O.2     
  29 N29           -2.4513    -4.5171     6.9913 N.am    
  30 C30           -3.2909    -3.3167     7.0099 C.3     
  31 C31           -2.6757    -2.2785     7.9504 C.3     
  32 C32           -4.6719    -3.6771     7.4938 C.2     
  33 C33           -1.3269    -1.8204     7.3920 C.3     
  34 N34           -5.6208    -2.7252     7.5934 N.am    
  35 O35           -4.9294    -4.8237     7.7937 O.2     
  36 C36           -6.9632    -3.0755     8.0638 C.3     
  37 C37           -7.6196    -1.8578     8.6617 C.2     
  38 C38           -7.8005    -3.5801     6.8869 C.3     
  39 O39           -7.0246    -0.8014     8.6919 O.2     
  40 N40           -8.8678    -1.9428     9.1629 N.am    
  41 C41           -7.2031    -4.8859     6.3588 C.3     
  42 C42           -7.3185    -5.9703     7.4320 C.3     
  43 C43           -7.9641    -5.3250     5.1062 C.3     
  44 C44           -9.5059    -0.7590     9.7442 C.3     
  45 C45          -11.0037    -0.9051     9.6636 C.2     
  46 C46           -9.0852    -0.6201    11.2086 C.3     
  47 O47          -11.4902    -1.9000     9.1692 O.2     
  48 N48          -11.8025     0.0699    10.1408 N.am    
  49 C49           -2.7588    -2.7581    -2.1553 C.ar    
  50 C50           -3.4537    -1.5575    -2.1694 C.ar    
  51 C51           -3.4106    -0.7207    -1.0637 C.ar    
  52 C52           -2.6807    -1.0873     0.0504 C.ar    
  53 O53           -4.1752    -1.2015    -3.2647 O.3     
  54 C54           -0.7209    -0.7978     8.3184 C.2     
  55 O55           -1.3076    -0.4692     9.3222 O.2     
  56 O56            0.4707    -0.2521     8.0283 O.3     
  57 H57           -0.5286     1.8543     0.9071 H       
  58 H58            0.3720    -0.1988     1.9743 H       
  59 H59            0.6750    -2.4985     0.2003 H       
  60 H60            0.8186    -4.6004     1.8808 H       
  61 H61            1.9699     1.6006     0.8337 H       
  62 H62            1.8993     1.7557    -0.9381 H       
  63 H63           -0.8125     2.9948    -1.1651 H       
  64 H64           -0.2750     1.6766    -2.0250 H       
  65 H65            0.8465     3.9881    -0.7007 H       
  66 H66            0.9171     3.8331     1.0711 H       
  67 H67            3.3876     3.6542     0.9569 H       
  68 H68            3.3170     3.8093    -0.8149 H       
  69 H69            2.3190     5.8334     1.0811 H       
  70 H70            3.7548     5.9235     0.2468 H       
  71 H71           -1.1619    -3.7629     1.3576 H       
  72 H72           -1.6450    -2.2528     2.1666 H       
  73 H73           -1.4843    -4.0519    -1.0295 H       
  74 H74            2.8802    -3.7675     3.7737 H       
  75 H75            1.3904    -7.6041     5.2259 H       
  76 H76            1.8292    -7.8168     2.8900 H       
  77 H77            0.7057    -6.5020     2.4781 H       
  78 H78            3.1085    -5.8126     2.3194 H       
  79 H79            3.2908    -6.1500     4.0556 H       
  80 H80           -0.1119    -5.9996     7.1353 H       
  81 H81           -1.3598    -7.8032     6.4663 H       
  82 H82           -2.3779    -6.7327     5.4560 H       
  83 H83           -1.1270    -7.1730     3.5215 H       
  84 H84           -0.6247    -8.6492     4.4097 H       
  85 H85           -2.6588    -5.2632     7.5754 H       
  86 H86           -3.3551    -2.9026     6.0036 H       
  87 H87           -3.3445    -1.4218     8.0332 H       
  88 H88           -2.5295    -2.7220     8.9353 H       
  89 H89           -0.6581    -2.6771     7.3091 H       
  90 H90           -1.4731    -1.3770     6.4071 H       
  91 H91           -5.4148    -1.8081     7.3536 H       
  92 H92           -6.8908    -3.8573     8.8199 H       
  93 H93           -8.8238    -3.7565     7.2183 H       
  94 H94           -7.7993    -2.8329     6.0933 H       
  95 H95           -9.3437    -2.7877     9.1388 H       
  96 H96           -6.1532    -4.7308     6.1104 H       
  97 H97           -8.3684    -6.1253     7.6805 H       
  98 H98           -6.8929    -6.9005     7.0558 H       
  99 H99           -6.7763    -5.6574     8.3244 H       
 100 H100          -7.8820    -4.5525     4.3417 H       
 101 H101          -7.5386    -6.2553     4.7300 H       
 102 H102          -9.0141    -5.4801     5.3547 H       
 103 H103          -9.1972     0.1284     9.1917 H       
 104 H104          -9.3939    -1.5075    11.7611 H       
 105 H105          -8.0019    -0.5144    11.2669 H       
 106 H106          -9.5599     0.2606    11.6411 H       
 107 H107         -11.4134     0.8656    10.5361 H       
 108 H108         -12.7665    -0.0242    10.0889 H       
 109 H109          -2.7905    -3.4111    -3.0149 H       
 110 H110          -3.9507     0.2145    -1.0723 H       
 111 H111          -2.6468    -0.4362     0.9114 H       
 112 H112          -5.0931    -1.5050    -3.2467 H       
 113 H113           0.8189     0.3992     8.6525 H       
@<TRIPOS>BOND
   1    1    2 1
   2    1    7 1
   3    1    8 1
   4    1   57 1
   5    2    3 am
   6    2   12 2
   7    3    4 1
   8    3   58 1
   9    4    5 1
  10    4   13 1
  11    4   59 1
  12    5    6 am
  13    5   16 2
  14    6   17 1
  15    6   60 1
  16    7    9 1
  17    7   61 1
  18    7   62 1
  19    8   63 1
  20    8   64 1
  21    9   10 1
  22    9   65 1
  23    9   66 1
  24   10   11 1
  25   10   67 1
  26   10   68 1
  27   11   69 1
  28   11   70 1
  29   13   14 1
  30   13   71 1
  31   13   72 1
  32   14   15 ar
  33   14   52 ar
  34   15   49 ar
  35   15   73 1
  36   17   18 1
  37   17   22 1
  38   17   74 1
  39   18   19 am
  40   18   26 2
  41   19   20 1
  42   19   23 1
  43   20   21 1
  44   20   25 1
  45   20   75 1
  46   21   22 1
  47   21   76 1
  48   21   77 1
  49   22   78 1
  50   22   79 1
  51   23   24 1
  52   23   27 1
  53   23   80 1
  54   24   25 1
  55   24   81 1
  56   24   82 1
  57   25   83 1
  58   25   84 1
  59   27   28 2
  60   27   29 am
  61   29   30 1
  62   29   85 1
  63   30   31 1
  64   30   32 1
  65   30   86 1
  66   31   33 1
  67   31   87 1
  68   31   88 1
  69   32   34 am
  70   32   35 2
  71   33   54 1
  72   33   89 1
  73   33   90 1
  74   34   36 1
  75   34   91 1
  76   36   37 1
  77   36   38 1
  78   36   92 1
  79   37   39 2
  80   37   40 am
  81   38   41 1
  82   38   93 1
  83   38   94 1
  84   40   44 1
  85   40   95 1
  86   41   42 1
  87   41   43 1
  88   41   96 1
  89   42   97 1
  90   42   98 1
  91   42   99 1
  92   43  100 1
  93   43  101 1
  94   43  102 1
  95   44   45 1
  96   44   46 1
  97   44  103 1
  98   45   47 2
  99   45   48 am
 100   46  104 1
 101   46  105 1
 102   46  106 1
 103   48  107 1
 104   48  108 1
 105   49   50 ar
 106   49  109 1
 107   50   51 ar
 108   50   53 1
 109   51   52 ar
 110   51  110 1
 111   52  111 1
 112   53  112 1
 113   54   55 2
 114   54   56 1
 115   56  113 1

#	End of record

