#	Name: ASD04591151
#	Creating user name:	WinNT
#	Creation time:	15. 06. 2019 20:52

#	Modifying user name:	WinNT
#	Modification time:	15. 06. 2019 20:52

#	Program:	/corina/corina34_cracker 3.40 0067  02.08.2006

@<TRIPOS>MOLECULE
ASD04591151
  59   64    0    0    0
SMALL
NO_CHARGES


@<TRIPOS>ATOM
   1 N1            -0.0170     1.3232    -0.0112 N.ar    
   2 C2             0.0017    -0.0035    -0.0049 C.ar    
   3 N3             1.1299    -0.6949    -0.0117 N.ar    
   4 C4             2.3050    -0.0729    -0.0259 C.ar    
   5 C5             2.3189     1.3365    -0.0334 C.ar    
   6 C6             1.1072     2.0202    -0.0253 C.ar    
   7 N7             3.6031    -0.5196    -0.0356 N.pl3   
   8 C8             4.4823     0.5495    -0.0493 C.ar    
   9 C9             3.7312     1.7384    -0.0486 C.ar    
  10 C10            5.8681     0.6418    -0.0623 C.ar    
  11 N11            6.4613     1.8180    -0.0731 N.ar    
  12 C12            5.7851     2.9532    -0.0727 C.ar    
  13 C13            4.4064     2.9584    -0.0612 C.ar    
  14 N14           -1.2019    -0.6887     0.0098 N.pl3   
  15 C15           -2.4021     0.0122     0.1304 C.ar    
  16 C16            4.0018    -1.9293    -0.0315 C.3     
  17 N17           -2.3872     1.3236     0.3315 N.ar    
  18 C18           -3.5235     1.9874     0.4452 C.ar    
  19 C19           -4.7355     1.3117     0.3541 C.ar    
  20 N20           -4.7503     0.0000     0.1529 N.ar    
  21 C21           -3.6138    -0.6627     0.0340 C.ar    
  22 N22           -5.9340     2.0116     0.4745 N.3     
  23 C23            3.4004    -2.6449     1.1957 C.3     
  24 C24            3.4384    -2.6400    -1.2746 C.3     
  25 C25            2.5144    -3.7627    -0.7594 C.3     
  26 C26            2.1010    -3.2941     0.6579 C.3     
  27 C27           -6.0084     3.1014    -0.5085 C.3     
  28 C28           -7.3002     3.8931    -0.2917 C.3     
  29 N29           -8.4526     2.9905    -0.4221 N.3     
  30 C30           -8.3781     1.9006     0.5609 C.3     
  31 C31           -7.0863     1.1090     0.3441 C.3     
  32 C32           -9.5814     0.9720     0.3856 C.3     
  33 H33            1.0849     3.0999    -0.0311 H       
  34 H34            6.4645    -0.2586    -0.0631 H       
  35 H35            6.3204     3.8911    -0.0819 H       
  36 H36            3.8597     3.8898    -0.0610 H       
  37 H37           -1.2103    -1.6559    -0.0636 H       
  38 H38            5.0887    -2.0096    -0.0159 H       
  39 H39           -3.5113     3.0548     0.6093 H       
  40 H40           -3.6258    -1.7301    -0.1301 H       
  41 H41            4.0843    -3.4093     1.5647 H       
  42 H42            3.1704    -1.9258     1.9819 H       
  43 H43            2.8684    -1.9360    -1.8809 H       
  44 H44            4.2519    -3.0660    -1.8618 H       
  45 H45            1.6378    -3.8594    -1.4000 H       
  46 H46            3.0552    -4.7076    -0.7062 H       
  47 H47            1.8091    -4.1433     1.2757 H       
  48 H48            1.2967    -2.5605     0.6029 H       
  49 H49           -5.1512     3.7630    -0.3836 H       
  50 H50           -6.0024     2.6840    -1.5154 H       
  51 H51           -7.2940     4.3331     0.7055 H       
  52 H52           -7.3716     4.6841    -1.0382 H       
  53 H53           -9.3206     3.4974    -0.3349 H       
  54 H54           -8.3842     2.3180     1.5678 H       
  55 H55           -7.0925     0.6689    -0.6531 H       
  56 H56           -7.0149     0.3179     1.0906 H       
  57 H57           -9.5743     0.5542    -0.6211 H       
  58 H58           -9.5259     0.1638     1.1148 H       
  59 H59          -10.5013     1.5365     0.5382 H       
@<TRIPOS>BOND
   1    1    2 ar
   2    1    6 ar
   3    2    3 ar
   4    2   14 1
   5    3    4 ar
   6    4    5 ar
   7    4    7 1
   8    5    6 ar
   9    5    9 1
  10    6   33 1
  11    7    8 1
  12    7   16 1
  13    8    9 ar
  14    8   10 ar
  15    9   13 ar
  16   10   11 ar
  17   10   34 1
  18   11   12 ar
  19   12   13 ar
  20   12   35 1
  21   13   36 1
  22   14   15 1
  23   14   37 1
  24   15   17 ar
  25   15   21 ar
  26   16   24 1
  27   16   23 1
  28   16   38 1
  29   17   18 ar
  30   18   19 ar
  31   18   39 1
  32   19   20 ar
  33   19   22 1
  34   20   21 ar
  35   21   40 1
  36   22   27 1
  37   22   31 1
  38   23   26 1
  39   23   41 1
  40   23   42 1
  41   24   25 1
  42   24   43 1
  43   24   44 1
  44   25   26 1
  45   25   45 1
  46   25   46 1
  47   26   47 1
  48   26   48 1
  49   27   28 1
  50   27   49 1
  51   27   50 1
  52   28   29 1
  53   28   51 1
  54   28   52 1
  55   29   30 1
  56   29   53 1
  57   30   31 1
  58   30   32 1
  59   30   54 1
  60   31   55 1
  61   31   56 1
  62   32   57 1
  63   32   58 1
  64   32   59 1

#	End of record

