#	Name: ASD00170382
#	Creating user name:	WinNT
#	Creation time:	15. 06. 2019 18:32

#	Modifying user name:	WinNT
#	Modification time:	15. 06. 2019 18:32

#	Program:	/corina/corina34_cracker 3.40 0067  02.08.2006

@<TRIPOS>MOLECULE
ASD00170382
  20   21    0    0    0
SMALL
NO_CHARGES


@<TRIPOS>ATOM
   1 C1            -0.0161     1.3390     0.0094 C.2     
   2 C2             0.0021    -0.0041     0.0020 C.2     
   3 S3            -1.6561    -0.5906     0.0138 S.3     
   4 C4            -2.2360     1.0168     0.0275 C.2     
   5 N5            -1.2442     1.8465     0.0182 N.2     
   6 C6             1.2530     2.1781     0.0018 C.3     
   7 C7             2.4295     1.2945     0.4219 C.3     
   8 C8             2.4361     0.0185    -0.4250 C.3     
   9 C9             1.2478    -0.8581    -0.0142 C.3     
  10 N10           -3.5740     1.3784     0.0413 N.pl3   
  11 H11            1.4279     2.5670    -1.0013 H       
  12 H12            1.1483     3.0054     0.7037 H       
  13 H13            3.3632     1.8362     0.2704 H       
  14 H14            2.3286     1.0313     1.4748 H       
  15 H15            2.3495     0.2802    -1.4796 H       
  16 H16            3.3657    -0.5255    -0.2578 H       
  17 H17            1.4230    -1.2696     0.9798 H       
  18 H18            1.1257    -1.6689    -0.7324 H       
  19 H19           -4.2613     0.6940     0.0438 H       
  20 H20           -3.8230     2.3158     0.0485 H       
@<TRIPOS>BOND
   1    1    2 2
   2    1    6 1
   3    1    5 1
   4    2    3 1
   5    2    9 1
   6    3    4 1
   7    4    5 2
   8    4   10 1
   9    6    7 1
  10    6   11 1
  11    6   12 1
  12    7    8 1
  13    7   13 1
  14    7   14 1
  15    8    9 1
  16    8   15 1
  17    8   16 1
  18    9   17 1
  19    9   18 1
  20   10   19 1
  21   10   20 1

#	End of record

