#	Name: ASD01910666
#	Creating user name:	WinNT
#	Creation time:	15. 06. 2019 19:56

#	Modifying user name:	WinNT
#	Modification time:	15. 06. 2019 19:56

#	Program:	/corina/corina34_cracker 3.40 0067  02.08.2006

@<TRIPOS>MOLECULE
ASD01910666
  32   34    0    0    0
SMALL
NO_CHARGES


@<TRIPOS>ATOM
   1 C1            -0.0167     1.3814     0.0096 C.ar    
   2 C2             0.0021    -0.0041     0.0020 C.ar    
   3 C3            -1.1849    -0.7190     0.0095 C.ar    
   4 C4            -2.3954    -0.0535     0.0246 C.ar    
   5 C5            -2.4212     1.3436     0.0324 C.ar    
   6 C6            -1.2206     2.0587     0.0305 C.ar    
   7 C7            -3.6726     2.0396     0.0481 C.1     
   8 C8            -4.6986     2.6102     0.0610 C.1     
   9 C9            -5.9500     3.3061     0.0767 C.ar    
  10 C10           -5.9713     4.7059     0.0844 C.ar    
  11 C11           -7.1647     5.3660     0.0992 C.ar    
  12 C12           -8.3640     4.6440     0.1060 C.ar    
  13 C13           -8.3452     3.2490     0.0993 C.ar    
  14 C14           -7.1501     2.5861     0.0786 C.ar    
  15 C15           -7.2140     6.8711     0.1089 C.3     
  16 C16           -8.4268     7.3565    -0.6817 C.3     
  17 N17           -9.6458     6.6886    -0.2335 N.am    
  18 C18           -9.6402     5.3877     0.1192 C.2     
  19 O19          -10.6725     4.8333     0.4436 O.2     
  20 F20            1.1448     2.0714     0.0023 F       
  21 F21           -1.1583    -2.0697     0.0016 F       
  22 H22            0.9459    -0.5290    -0.0102 H       
  23 H23           -3.3199    -0.6118     0.0301 H       
  24 H24           -1.2340     3.1386     0.0365 H       
  25 H25           -5.0452     5.2616     0.0791 H       
  26 H26           -9.2720     2.6948     0.1056 H       
  27 H27           -7.1317     1.5063     0.0729 H       
  28 H28           -7.2874     7.2244     1.1375 H       
  29 H29           -6.3047     7.2661    -0.3442 H       
  30 H30           -8.5367     8.4321    -0.5440 H       
  31 H31           -8.2718     7.1460    -1.7399 H       
  32 H32          -10.4746     7.1905    -0.1888 H       
@<TRIPOS>BOND
   1    1    2 ar
   2    1   20 1
   3    1    6 ar
   4    2    3 ar
   5    2   22 1
   6    3    4 ar
   7    3   21 1
   8    4    5 ar
   9    4   23 1
  10    5    6 ar
  11    5    7 1
  12    6   24 1
  13    7    8 3
  14    8    9 1
  15    9   10 ar
  16    9   14 ar
  17   10   11 ar
  18   10   25 1
  19   11   12 ar
  20   11   15 1
  21   12   13 ar
  22   12   18 1
  23   13   14 ar
  24   13   26 1
  25   14   27 1
  26   15   16 1
  27   15   28 1
  28   15   29 1
  29   16   17 1
  30   16   30 1
  31   16   31 1
  32   17   18 am
  33   17   32 1
  34   18   19 2

#	End of record

