#	Name: ASD03332008
#	Creating user name:	WinNT
#	Creation time:	15. 06. 2019 20:40

#	Modifying user name:	WinNT
#	Modification time:	15. 06. 2019 20:40

#	Program:	/corina/corina34_cracker 3.40 0067  02.08.2006

@<TRIPOS>MOLECULE
ASD03332008
  62   64    0    0    0
SMALL
NO_CHARGES


@<TRIPOS>ATOM
   1 C1             0.1612     1.2132     0.7160 C.2     
   2 N2             0.2492    -0.1103     0.9848 N.pl3   
   3 C3             1.5753    -0.4307     1.0450 C.2     
   4 N4             2.2782     0.6599     0.8402 N.2     
   5 C5             1.4340     1.6937     0.6369 C.2     
   6 C6             1.8200     3.0918     0.3754 C.2     
   7 O7             0.9629     3.9380     0.2070 O.2     
   8 N8             3.1229     3.4326     0.3230 N.am    
   9 C9             3.5066     4.8224     0.0631 C.3     
  10 C10            3.5321     5.0707    -1.4464 C.3     
  11 C11            4.4503     4.0466    -2.1164 C.3     
  12 C12            4.8754     5.0815     0.6379 C.2     
  13 C13            2.1164     4.9320    -2.0100 C.3     
  14 C14            4.0549     6.4819    -1.7224 C.3     
  15 O15            5.5425     4.1587     1.0552 O.2     
  16 N16            5.3581     6.3389     0.6883 N.am    
  17 C17            6.7194     6.5820     1.1721 C.3     
  18 C18           -0.8861    -1.0143     1.1886 C.3     
  19 C19           -1.9146    -0.7881     0.0763 C.3     
  20 C20           -2.8754     0.3253     0.4815 C.3     
  21 N21           -2.1931     1.3407     1.2865 N.3     
  22 C22           -1.1157     1.9903     0.5255 C.3     
  23 C23           -3.1465     2.3330     1.8007 C.3     
  24 C24            2.1262    -1.7761     1.2983 C.2     
  25 C25            3.4415    -1.9247     1.3261 C.2     
  26 C26            4.0949    -3.2581     1.5689 C.3     
  27 C27            3.0750    -4.2212     2.1858 C.3     
  28 C28            1.7764    -4.1310     1.3728 C.3     
  29 O29            1.2629    -2.8004     1.4970 O.3     
  30 H30            3.8066     2.7578     0.4573 H       
  31 H31            2.7840     5.4921     0.5293 H       
  32 H32            4.0779     3.0412    -1.9197 H       
  33 H33            4.4685     4.2235    -3.1918 H       
  34 H34            5.4589     4.1454    -1.7148 H       
  35 H35            1.4623     5.6616    -1.5328 H       
  36 H36            2.1346     5.1089    -3.0854 H       
  37 H37            1.7440     3.9267    -1.8134 H       
  38 H38            5.0157     6.6170    -1.2257 H       
  39 H39            4.1786     6.6199    -2.7966 H       
  40 H40            3.3429     7.2141    -1.3416 H       
  41 H41            4.8042     7.0828     0.4043 H       
  42 H42            7.4303     6.0522     0.5381 H       
  43 H43            6.9307     7.6509     1.1405 H       
  44 H44            6.8100     6.2239     2.1976 H       
  45 H45           -0.5391    -2.0472     1.1594 H       
  46 H46           -1.3449    -0.8104     2.1561 H       
  47 H47           -1.3995    -0.5060    -0.8419 H       
  48 H48           -2.4754    -1.7076    -0.0914 H       
  49 H49           -3.2805     0.7927    -0.4160 H       
  50 H50           -3.6933    -0.1015     1.0621 H       
  51 H51           -0.9789     3.0100     0.8855 H       
  52 H52           -1.3767     2.0084    -0.5327 H       
  53 H53           -3.8893     1.8344     2.4234 H       
  54 H54           -2.6135     3.0752     2.3948 H       
  55 H55           -3.6443     2.8255     0.9653 H       
  56 H56            4.0673    -1.0586     1.1686 H       
  57 H57            4.4530    -3.6649     0.6232 H       
  58 H58            4.9350    -3.1322     2.2518 H       
  59 H59            3.4619    -5.2395     2.1487 H       
  60 H60            2.8814    -3.9383     3.2204 H       
  61 H61            1.9823    -4.3528     0.3257 H       
  62 H62            1.0485    -4.8422     1.7632 H       
@<TRIPOS>BOND
   1    1    2 1
   2    1    5 2
   3    1   22 1
   4    2    3 1
   5    2   18 1
   6    3    4 2
   7    3   24 1
   8    4    5 1
   9    5    6 1
  10    6    7 2
  11    6    8 am
  12    8    9 1
  13    8   30 1
  14    9   10 1
  15    9   12 1
  16    9   31 1
  17   10   11 1
  18   10   13 1
  19   10   14 1
  20   11   32 1
  21   11   33 1
  22   11   34 1
  23   12   15 2
  24   12   16 am
  25   13   35 1
  26   13   36 1
  27   13   37 1
  28   14   38 1
  29   14   39 1
  30   14   40 1
  31   16   17 1
  32   16   41 1
  33   17   42 1
  34   17   43 1
  35   17   44 1
  36   18   19 1
  37   18   45 1
  38   18   46 1
  39   19   20 1
  40   19   47 1
  41   19   48 1
  42   20   21 1
  43   20   49 1
  44   20   50 1
  45   21   22 1
  46   21   23 1
  47   22   51 1
  48   22   52 1
  49   23   53 1
  50   23   54 1
  51   23   55 1
  52   24   25 2
  53   24   29 1
  54   25   26 1
  55   25   56 1
  56   26   27 1
  57   26   57 1
  58   26   58 1
  59   27   28 1
  60   27   59 1
  61   27   60 1
  62   28   29 1
  63   28   61 1
  64   28   62 1

#	End of record

