#	Name: ASD01908361
#	Creating user name:	WinNT
#	Creation time:	15. 06. 2019 19:55

#	Modifying user name:	WinNT
#	Modification time:	15. 06. 2019 19:55

#	Program:	/corina/corina34_cracker 3.40 0067  02.08.2006

@<TRIPOS>MOLECULE
ASD01908361
  45   48    0    0    0
SMALL
NO_CHARGES


@<TRIPOS>ATOM
   1 C1            -0.0090     1.0381    -0.3475 C.ar    
   2 C2             0.0419    -0.3430    -0.3605 C.ar    
   3 C3             1.2635    -0.9840    -0.3497 C.ar    
   4 C4             2.4446    -0.2518    -0.3259 C.ar    
   5 C5             2.3939     1.1236    -0.3130 C.ar    
   6 C6             1.1619     1.7671    -0.3239 C.ar    
   7 S7             4.1142    -0.8202    -0.3087 S.o2    
   8 N8             5.0741     0.5335    -0.2821 N.am    
   9 S9             4.0171     1.8130    -0.2839 S.o2    
  10 C10            6.4719     0.5848    -0.2618 C.ar    
  11 C11            7.1216     1.8123    -0.2409 C.ar    
  12 C12            7.2101    -0.5916    -0.2569 C.ar    
  13 C13            8.5896    -0.5408    -0.2369 C.ar    
  14 C14            9.2391     0.6865    -0.2213 C.ar    
  15 C15            8.5011     1.8629    -0.2209 C.ar    
  16 N16           10.6388     0.7379    -0.2005 N.am    
  17 C17           11.2864     1.7274    -0.8471 C.2     
  18 O18           10.6628     2.5196    -1.5264 O.2     
  19 C19           12.7549     1.8492    -0.7303 C.ar    
  20 C20           13.4632     0.9998     0.1210 C.ar    
  21 C21           14.8338     1.1189     0.2254 C.ar    
  22 C22           15.5060     2.0778    -0.5111 C.ar    
  23 C23           14.8097     2.9234    -1.3567 C.ar    
  24 C24           13.4401     2.8106    -1.4754 C.ar    
  25 O25            4.1940     2.4807    -1.5258 O.2     
  26 O26            4.1598     2.4559     0.9752 O.2     
  27 O27            4.3048    -1.4743     0.9384 O.2     
  28 O28            4.3390    -1.4496    -1.5627 O.2     
  29 C29           12.6835     3.7321    -2.3971 C.3     
  30 H30           -0.9625     1.5450    -0.3604 H       
  31 H31           -0.8717    -0.9187    -0.3787 H       
  32 H32            1.3023    -2.0633    -0.3595 H       
  33 H33            1.1211     2.8462    -0.3141 H       
  34 H34            6.5476     2.7271    -0.2407 H       
  35 H35            6.7050    -1.5462    -0.2683 H       
  36 H36            9.1637    -1.4556    -0.2330 H       
  37 H37            9.0063     2.8173    -0.2091 H       
  38 H38           11.1419     0.0614     0.2792 H       
  39 H39           12.9396     0.2512     0.6971 H       
  40 H40           15.3832     0.4622     0.8838 H       
  41 H41           16.5789     2.1671    -0.4255 H       
  42 H42           15.3404     3.6704    -1.9284 H       
  43 H43           12.5084     3.2305    -3.3489 H       
  44 H44           11.7278     3.9951    -1.9437 H       
  45 H45           13.2671     4.6372    -2.5654 H       
@<TRIPOS>BOND
   1    1    2 ar
   2    1    6 ar
   3    1   30 1
   4    2    3 ar
   5    2   31 1
   6    3    4 ar
   7    3   32 1
   8    4    5 ar
   9    4    7 1
  10    5    6 ar
  11    5    9 1
  12    6   33 1
  13    7    8 am
  14    7   27 2
  15    7   28 2
  16    8    9 am
  17    8   10 1
  18    9   25 2
  19    9   26 2
  20   10   11 ar
  21   10   12 ar
  22   11   15 ar
  23   11   34 1
  24   12   13 ar
  25   12   35 1
  26   13   14 ar
  27   13   36 1
  28   14   15 ar
  29   14   16 1
  30   15   37 1
  31   16   17 am
  32   16   38 1
  33   17   18 2
  34   17   19 1
  35   19   20 ar
  36   19   24 ar
  37   20   21 ar
  38   20   39 1
  39   21   22 ar
  40   21   40 1
  41   22   23 ar
  42   22   41 1
  43   23   24 ar
  44   23   42 1
  45   24   29 1
  46   29   43 1
  47   29   44 1
  48   29   45 1

#	End of record

