#	Name: ASD02039059
#	Creating user name:	WinNT
#	Creation time:	15. 06. 2019 20:17

#	Modifying user name:	WinNT
#	Modification time:	15. 06. 2019 20:17

#	Program:	/corina/corina34_cracker 3.40 0067  02.08.2006

@<TRIPOS>MOLECULE
ASD02039059
  47   50    0    0    0
SMALL
NO_CHARGES


@<TRIPOS>ATOM
   1 N1             0.0234     1.2846    -0.3607 N.2     
   2 N2             0.0398    -0.0019    -0.3619 N.2     
   3 C3             1.2243     1.7332    -0.0875 C.2     
   4 O4             2.0203     0.6621     0.0883 O.3     
   5 C5             1.2410    -0.4221    -0.0920 C.2     
   6 N6             1.6034     3.0607     0.0028 N.pl3   
   7 C7             0.6404     4.0705    -0.0881 C.ar    
   8 C8             1.6809    -1.8604     0.0024 C.3     
   9 O9             2.1174    -2.3102    -1.2818 O.3     
  10 C10            2.5502    -3.5961    -1.3711 C.ar    
  11 C11            2.9880    -4.0978    -2.5882 C.ar    
  12 C12            2.5593    -4.4047    -0.2442 C.ar    
  13 C13            3.0054    -5.7085    -0.3335 C.ar    
  14 C14            3.4455    -6.2111    -1.5503 C.ar    
  15 C15            3.4274    -5.4036    -2.6799 C.ar    
  16 C16           -0.6619     3.8293     0.3296 C.ar    
  17 C17            0.9861     5.3185    -0.5910 C.ar    
  18 C18            0.0337     6.3145    -0.6795 C.ar    
  19 C19           -1.2648     6.0708    -0.2678 C.ar    
  20 C20           -1.6116     4.8296     0.2389 C.ar    
  21 N21            3.9003    -7.5317    -1.6397 N.am    
  22 C22            4.5780    -7.9537    -2.7210 C.2     
  23 C23            4.9729    -6.9852    -3.8045 C.3     
  24 C24            3.8623    -5.9583    -4.0120 C.3     
  25 O25            4.8746    -9.1252    -2.8248 O.2     
  26 Cl26          -2.4594     7.3254    -0.3805 Cl      
  27 Cl27          -3.2415     4.5276     0.7546 Cl      
  28 C28            6.2586    -6.2628    -3.3973 C.3     
  29 C29            5.2114    -7.7499    -5.1081 C.3     
  30 H30            2.5371     3.2910     0.1292 H       
  31 H31            2.5017    -1.9433     0.7148 H       
  32 H32            0.8453    -2.4746     0.3379 H       
  33 H33            2.9849    -3.4667    -3.4646 H       
  34 H34            2.2178    -4.0146     0.7032 H       
  35 H35            3.0124    -6.3377     0.5443 H       
  36 H36           -0.9324     2.8611     0.7244 H       
  37 H37            1.9994     5.5098    -0.9123 H       
  38 H38            0.3026     7.2848    -1.0701 H       
  39 H39            3.7246    -8.1495    -0.9128 H       
  40 H40            3.0125    -6.4365    -4.4991 H       
  41 H41            4.2308    -5.1476    -4.6406 H       
  42 H42            7.0555    -6.9925    -3.2536 H       
  43 H43            6.5452    -5.5616    -4.1811 H       
  44 H44            6.0913    -5.7196    -2.4673 H       
  45 H45            4.2971    -8.2674    -5.3983 H       
  46 H46            5.4973    -7.0496    -5.8930 H       
  47 H47            6.0098    -8.4773    -4.9617 H       
@<TRIPOS>BOND
   1    1    2 1
   2    1    3 2
   3    2    5 2
   4    3    4 1
   5    3    6 1
   6    4    5 1
   7    5    8 1
   8    6    7 1
   9    6   30 1
  10    7   16 ar
  11    7   17 ar
  12    8    9 1
  13    8   31 1
  14    8   32 1
  15    9   10 1
  16   10   11 ar
  17   10   12 ar
  18   11   15 ar
  19   11   33 1
  20   12   13 ar
  21   12   34 1
  22   13   14 ar
  23   13   35 1
  24   14   15 ar
  25   14   21 1
  26   15   24 1
  27   16   20 ar
  28   16   36 1
  29   17   18 ar
  30   17   37 1
  31   18   19 ar
  32   18   38 1
  33   19   20 ar
  34   19   26 1
  35   20   27 1
  36   21   22 am
  37   21   39 1
  38   22   23 1
  39   22   25 2
  40   23   24 1
  41   23   28 1
  42   23   29 1
  43   24   40 1
  44   24   41 1
  45   28   42 1
  46   28   43 1
  47   28   44 1
  48   29   45 1
  49   29   46 1
  50   29   47 1

#	End of record

