#	Name: ASD08150964
#	Creating user name:	WinNT
#	Creation time:	15. 06. 2019 21:16

#	Modifying user name:	WinNT
#	Modification time:	15. 06. 2019 21:16

#	Program:	/corina/corina34_cracker 3.40 0067  02.08.2006

@<TRIPOS>MOLECULE
ASD08150964
  63   67    0    0    0
SMALL
NO_CHARGES


@<TRIPOS>ATOM
   1 C1            -0.9416    -1.4569     3.2105 C.2     
   2 C2            -0.4208    -1.3454     1.8007 C.3     
   3 O3            -0.2338    -1.9115     4.0842 O.2     
   4 N4            -2.1918    -1.0464     3.5015 N.am    
   5 C5            -2.6981    -1.1548     4.8720 C.3     
   6 C6            -3.0447    -0.4917     2.4474 C.3     
   7 N7             1.0007    -1.7146     1.7731 N.3     
   8 C8             1.8124    -0.7401     2.5156 C.3     
   9 C9             3.2716    -1.2017     2.5306 C.3     
  10 N10            3.7531    -1.3400     1.1490 N.3     
  11 C11            2.9414    -2.3144     0.4065 C.3     
  12 C12            1.4822    -1.8529     0.3916 C.3     
  13 N13            4.6541    -3.7774     2.2031 N.ar    
  14 C14            5.0422    -4.9249     2.7041 C.ar    
  15 C15            6.3807    -5.3117     2.6981 C.ar    
  16 C16            7.3261    -4.4861     2.1598 C.ar    
  17 C17            6.9049    -3.2550     1.6223 C.ar    
  18 C18            7.8213    -2.3558     1.0519 C.ar    
  19 C19            7.3818    -1.1717     0.5394 C.ar    
  20 C20            6.0319    -0.8351     0.5712 C.ar    
  21 C21            5.1033    -1.6906     1.1228 C.ar    
  22 C22            5.5282    -2.9246     1.6618 C.ar    
  23 C23            5.5801     0.4825    -0.0039 C.3     
  24 C24            5.5550     1.5398     1.1018 C.3     
  25 N25            6.5087     0.8996    -1.0574 N.pl3   
  26 N26            8.2514     1.9006    -3.3838 N.2     
  27 C27            8.5685     2.5091    -4.4896 C.2     
  28 N28            7.4704     3.1226    -5.0150 N.pl3   
  29 C29            6.4164     2.8707    -4.1735 C.ar    
  30 N30            5.1281     3.1962    -4.1596 N.ar    
  31 C31            4.3438     2.7896    -3.1836 C.ar    
  32 N32            4.7839     2.0503    -2.1819 N.ar    
  33 C33            6.0569     1.6752    -2.1108 C.ar    
  34 C34            6.9334     2.0843    -3.1299 C.ar    
  35 Cl35           9.5108    -2.7518     1.0003 Cl      
  36 H36           -0.9832    -2.0165     1.1515 H       
  37 H37           -0.5367    -0.3196     1.4507 H       
  38 H38           -2.4665    -0.2405     5.4182 H       
  39 H39           -3.7779    -1.3013     4.8499 H       
  40 H40           -2.2264    -2.0034     5.3675 H       
  41 H41           -2.5008    -0.4910     1.5028 H       
  42 H42           -3.9432    -1.1009     2.3488 H       
  43 H43           -3.3247     0.5294     2.7062 H       
  44 H44            1.7441     0.2341     2.0315 H       
  45 H45            1.4444    -0.6648     3.5388 H       
  46 H46            3.8804    -0.4658     3.0559 H       
  47 H47            3.3437    -2.1632     3.0388 H       
  48 H48            3.3095    -2.3898    -0.6167 H       
  49 H49            3.0098    -3.2886     0.8906 H       
  50 H50            0.8734    -2.5888    -0.1337 H       
  51 H51            1.4101    -0.8913    -0.1166 H       
  52 H52            4.3052    -5.5876     3.1332 H       
  53 H53            6.6703    -6.2632     3.1191 H       
  54 H54            8.3681    -4.7698     2.1470 H       
  55 H55            8.0914    -0.4849     0.1023 H       
  56 H56            4.5803     0.3720    -0.4236 H       
  57 H57            6.5693     1.7142     1.4608 H       
  58 H58            5.1447     2.4691     0.7066 H       
  59 H59            4.9332     1.1894     1.9256 H       
  60 H60            7.4402     0.6322    -1.0167 H       
  61 H61            9.5561     2.5261    -4.9263 H       
  62 H62            7.4398     3.6423    -5.8334 H       
  63 H63            3.3015     3.0718    -3.2025 H       
@<TRIPOS>BOND
   1    1    2 1
   2    1    3 2
   3    1    4 am
   4    2    7 1
   5    2   36 1
   6    2   37 1
   7    4    5 1
   8    4    6 1
   9    5   38 1
  10    5   39 1
  11    5   40 1
  12    6   41 1
  13    6   42 1
  14    6   43 1
  15    7    8 1
  16    7   12 1
  17    8    9 1
  18    8   44 1
  19    8   45 1
  20    9   10 1
  21    9   46 1
  22    9   47 1
  23   10   11 1
  24   10   21 1
  25   11   12 1
  26   11   48 1
  27   11   49 1
  28   12   50 1
  29   12   51 1
  30   13   14 ar
  31   13   22 ar
  32   14   15 ar
  33   14   52 1
  34   15   16 ar
  35   15   53 1
  36   16   17 ar
  37   16   54 1
  38   17   18 ar
  39   17   22 ar
  40   18   19 ar
  41   18   35 1
  42   19   20 ar
  43   19   55 1
  44   20   21 ar
  45   20   23 1
  46   21   22 ar
  47   23   24 1
  48   23   25 1
  49   23   56 1
  50   24   57 1
  51   24   58 1
  52   24   59 1
  53   25   33 1
  54   25   60 1
  55   26   27 2
  56   26   34 1
  57   27   28 1
  58   27   61 1
  59   28   29 1
  60   28   62 1
  61   29   30 ar
  62   29   34 ar
  63   30   31 ar
  64   31   32 ar
  65   31   63 1
  66   32   33 ar
  67   33   34 ar

#	End of record

