#	Name: ASD03740274
#	Creating user name:	WinNT
#	Creation time:	15. 06. 2019 20:47

#	Modifying user name:	WinNT
#	Modification time:	15. 06. 2019 20:47

#	Program:	/corina/corina34_cracker 3.40 0067  02.08.2006

@<TRIPOS>MOLECULE
ASD03740274
  68   73    0    0    0
SMALL
NO_CHARGES


@<TRIPOS>ATOM
   1 C1            -0.0178     1.4608     0.0101 C.3     
   2 N2             0.0021    -0.0041     0.0020 N.am    
   3 C3            -1.1558    -0.6938     0.0094 C.2     
   4 O4            -2.2179    -0.0997     0.0227 O.2     
   5 C5            -1.1359    -2.1607     0.0013 C.2     
   6 C6            -1.1346    -2.9932    -1.1057 C.2     
   7 O7            -1.1130    -4.2732    -0.6990 O.3     
   8 C8            -1.0993    -4.3627     0.6477 C.ar    
   9 C9            -1.0762    -5.4440     1.5185 C.ar    
  10 C10           -1.0665    -5.2301     2.8873 C.ar    
  11 N11           -1.0433    -6.3216     3.7594 N.am    
  12 C12            0.2328    -6.9453     4.1185 C.3     
  13 C13            0.8610    -6.1846     5.2879 C.3     
  14 C14            2.1937    -6.8359     5.6629 C.3     
  15 O15            3.1248    -6.6638     4.5959 O.3     
  16 O16            5.3933    -5.5593     4.3326 O.3     
  17 C17            3.9781    -5.6330     6.5965 C.ar    
  18 C18            4.7094    -4.9663     7.5733 C.ar    
  19 C19            4.2014    -4.8562     8.8529 C.ar    
  20 C20            2.9703    -5.4079     9.1595 C.ar    
  21 C21            2.2394    -6.0714     8.1894 C.ar    
  22 C22            2.7368    -6.1880     6.9082 C.ar    
  23 S23           -2.4581    -6.9103     4.3870 S.o2    
  24 C24           -2.9954    -8.1656     3.1928 C.3     
  25 O25           -2.0717    -7.5196     5.6112 O.2     
  26 O26           -3.3396    -5.7958     4.3696 O.2     
  27 C27           -1.0793    -3.9354     3.4008 C.ar    
  28 C28           -1.1027    -2.8540     2.5479 C.ar    
  29 C29           -1.1066    -3.0603     1.1710 C.ar    
  30 C30           -1.0680    -3.7175     4.8919 C.3     
  31 C31            0.1023    -2.9278     5.4816 C.3     
  32 C32           -1.2862    -2.2905     5.3989 C.3     
  33 C33           -1.1539    -2.5448    -2.5101 C.ar    
  34 C34           -1.1504    -3.4828    -3.5463 C.ar    
  35 C35           -1.1690    -3.0574    -4.8573 C.ar    
  36 C36           -1.1906    -1.7021    -5.1490 C.ar    
  37 C37           -1.1941    -0.7669    -4.1255 C.ar    
  38 C38           -1.1815    -1.1800    -2.8106 C.ar    
  39 B39            4.2466    -5.9379     5.0797 Du      
  40 F40           -1.2078    -1.2912    -6.4359 F       
  41 H41            1.0048     1.8381     0.0023 H       
  42 H42           -0.5450     1.8219    -0.8730 H       
  43 H43           -0.5280     1.8123     0.9069 H       
  44 H44            0.8486    -0.4776    -0.0086 H       
  45 H45           -1.0662    -6.4513     1.1290 H       
  46 H46            0.0616    -7.9817     4.4093 H       
  47 H47            0.9059    -6.9148     3.2617 H       
  48 H48            1.0322    -5.1481     4.9971 H       
  49 H49            0.1879    -6.2151     6.1447 H       
  50 H50            2.0405    -7.8997     5.8442 H       
  51 H51            5.3713    -5.8418     3.4081 H       
  52 H52            5.6706    -4.5368     7.3325 H       
  53 H53            4.7659    -4.3392     9.6148 H       
  54 H54            2.5771    -5.3197    10.1615 H       
  55 H55            1.2789    -6.4993     8.4362 H       
  56 H56           -2.3082    -9.0112     3.2206 H       
  57 H57           -3.9992    -8.5046     3.4489 H       
  58 H58           -3.0017    -7.7352     2.1914 H       
  59 H59           -1.1133    -1.8499     2.9457 H       
  60 H60           -1.4772    -4.5322     5.4892 H       
  61 H61            0.4628    -3.2229     6.4670 H       
  62 H62            0.8641    -2.5660     4.7910 H       
  63 H63           -1.4378    -1.5094     4.6540 H       
  64 H64           -1.8391    -2.1662     6.3300 H       
  65 H65           -1.1329    -4.5387    -3.3203 H       
  66 H66           -1.1663    -3.7812    -5.6588 H       
  67 H67           -1.2109     0.2874    -4.3590 H       
  68 H68           -1.1888    -0.4506    -2.0141 H       
@<TRIPOS>BOND
   1    1    2 1
   2    1   41 1
   3    1   42 1
   4    1   43 1
   5    2    3 am
   6    2   44 1
   7    3    4 2
   8    3    5 1
   9    5    6 2
  10    5   29 1
  11    6    7 1
  12    6   33 1
  13    7    8 1
  14    8    9 ar
  15    8   29 ar
  16    9   10 ar
  17    9   45 1
  18   10   11 1
  19   10   27 ar
  20   11   12 1
  21   11   23 am
  22   12   13 1
  23   12   46 1
  24   12   47 1
  25   13   14 1
  26   13   48 1
  27   13   49 1
  28   14   15 1
  29   14   22 1
  30   14   50 1
  31   15   39 1
  32   16   39 1
  33   16   51 1
  34   17   18 ar
  35   17   22 ar
  36   17   39 1
  37   18   19 ar
  38   18   52 1
  39   19   20 ar
  40   19   53 1
  41   20   21 ar
  42   20   54 1
  43   21   22 ar
  44   21   55 1
  45   23   24 1
  46   23   25 2
  47   23   26 2
  48   24   56 1
  49   24   57 1
  50   24   58 1
  51   27   28 ar
  52   27   30 1
  53   28   29 ar
  54   28   59 1
  55   30   31 1
  56   30   32 1
  57   30   60 1
  58   31   32 1
  59   31   61 1
  60   31   62 1
  61   32   63 1
  62   32   64 1
  63   33   34 ar
  64   33   38 ar
  65   34   35 ar
  66   34   65 1
  67   35   36 ar
  68   35   66 1
  69   36   37 ar
  70   36   40 1
  71   37   38 ar
  72   37   67 1
  73   38   68 1

#	End of record

