#	Name: ASD00431037
#	Creating user name:	WinNT
#	Creation time:	15. 06. 2019 18:35

#	Modifying user name:	WinNT
#	Modification time:	15. 06. 2019 18:35

#	Program:	/corina/corina34_cracker 3.40 0067  02.08.2006

@<TRIPOS>MOLECULE
ASD00431037
  87   89    0    0    0
SMALL
NO_CHARGES


@<TRIPOS>ATOM
   1 C1            -0.8962     0.9903    -1.8002 C.2     
   2 C2            -1.2061    -0.4856    -1.6245 C.3     
   3 C3            -2.7264    -0.5019    -1.3437 C.3     
   4 C4            -3.1813     0.8875    -1.7248 C.2     
   5 N5            -2.1174     1.6316    -2.0416 N.am    
   6 C6            -2.2188     2.9870    -2.5884 C.3     
   7 C7            -3.4216    -1.5516    -2.2130 C.3     
   8 O8            -4.3328     1.2682    -1.7410 O.2     
   9 C9             0.2441     1.5775    -1.7928 C.2     
  10 C10            1.6352     1.1402    -1.5119 C.3     
  11 C11            1.6910     0.2209    -0.3070 C.3     
  12 C12            0.9951    -1.0914    -0.5480 C.3     
  13 C13           -0.4786    -1.0611    -0.4211 C.3     
  14 C14           -2.2347     3.9844    -1.4588 C.2     
  15 C15           -3.2219     4.8391    -1.3536 C.2     
  16 C16           -3.3129     5.7406    -0.1494 C.3     
  17 C17           -2.6635     7.0881    -0.4709 C.3     
  18 C18           -2.7545     7.9897     0.7332 C.2     
  19 C19           -1.6621     8.4485     1.2919 C.2     
  20 C20           -4.8725    -1.6503    -1.8176 C.2     
  21 N21           -5.6865    -2.5167    -2.4525 N.am    
  22 C22           -7.0969    -2.6127    -2.0682 C.3     
  23 C23           -7.7817    -3.6466    -2.9244 C.ar    
  24 C24           -7.8191    -4.9665    -2.5147 C.ar    
  25 C25           -8.3760    -3.2722    -4.1151 C.ar    
  26 C26           -9.0060    -4.2216    -4.9036 C.ar    
  27 C27           -9.0387    -5.5511    -4.4939 C.ar    
  28 C28           -8.4460    -5.9187    -3.2966 C.ar    
  29 O29           -5.3076    -0.9500    -0.9282 O.2     
  30 C30           -0.3145     7.9688     0.8177 C.3     
  31 C31           -1.7530     9.4561     2.4089 C.3     
  32 C32           -4.2666     4.9207    -2.4366 C.3     
  33 C33           -0.8771    -1.2602    -2.8746 C.2     
  34 O34           -0.5500    -0.6746    -3.8796 O.2     
  35 O35           -0.9476    -2.6006    -2.8717 O.3     
  36 C36           -0.7531    -4.7921    -3.9156 C.3     
  37 C37           -0.6169    -3.2808    -4.1112 C.3     
  38 O38           -9.5915    -3.8549    -6.0750 O.3     
  39 C39           -9.5192    -2.4730    -6.4316 C.3     
  40 O40           -9.6558    -6.4866    -5.2643 O.3     
  41 C41           -9.6502    -7.8314    -4.7810 C.3     
  42 H42           -2.9182    -0.6908    -0.2874 H       
  43 H43           -1.3631     3.1831    -3.2343 H       
  44 H44           -3.1386     3.0777    -3.1662 H       
  45 H45           -3.3496    -1.2609    -3.2610 H       
  46 H46           -2.9395    -2.5187    -2.0702 H       
  47 H47            0.1778     2.6247    -2.0486 H       
  48 H48            2.0260     0.6124    -2.3818 H       
  49 H49            2.2533     2.0173    -1.3205 H       
  50 H50            2.7347     0.0261    -0.0605 H       
  51 H51            1.2185     0.7200     0.5391 H       
  52 H52            1.2393    -1.4292    -1.5551 H       
  53 H53            1.3877    -1.8226     0.1587 H       
  54 H54           -0.7409    -0.4561     0.4468 H       
  55 H55           -0.8344    -2.0777    -0.2532 H       
  56 H56           -1.4322     3.9947    -0.7361 H       
  57 H57           -4.3601     5.8949     0.1107 H       
  58 H58           -2.7942     5.2785     0.6905 H       
  59 H59           -1.6163     6.9339    -0.7311 H       
  60 H60           -3.1822     7.5503    -1.3108 H       
  61 H61           -3.7203     8.2575     1.1355 H       
  62 H62           -5.3385    -3.0768    -3.1639 H       
  63 H63           -7.1690    -2.9033    -1.0201 H       
  64 H64           -7.5790    -1.6456    -2.2110 H       
  65 H65           -7.3572    -5.2544    -1.5819 H       
  66 H66           -8.3495    -2.2396    -4.4306 H       
  67 H67           -8.4700    -6.9498    -2.9763 H       
  68 H68           -0.0016     8.5583    -0.0441 H       
  69 H69            0.4147     8.0828     1.6199 H       
  70 H70           -0.3817     6.9184     0.5344 H       
  71 H71           -2.3138     9.0280     3.2397 H       
  72 H72           -0.7496     9.7180     2.7445 H       
  73 H73           -2.2613    10.3512     2.0503 H       
  74 H74           -5.0334     4.1665    -2.2595 H       
  75 H75           -4.7222     5.9109    -2.4281 H       
  76 H76           -3.8000     4.7438    -3.4057 H       
  77 H77           -0.5048    -5.3027    -4.8461 H       
  78 H78           -0.0732    -5.1194    -3.1290 H       
  79 H79           -1.7782    -5.0309    -3.6325 H       
  80 H80           -1.2967    -2.9535    -4.8978 H       
  81 H81            0.4082    -3.0420    -4.3944 H       
  82 H82          -10.0239    -2.3170    -7.3851 H       
  83 H83          -10.0041    -1.8731    -5.6614 H       
  84 H84           -8.4746    -2.1748    -6.5204 H       
  85 H85           -8.6212    -8.1740    -4.6722 H       
  86 H86          -10.1509    -7.8719    -3.8137 H       
  87 H87          -10.1743    -8.4739    -5.4886 H       
@<TRIPOS>BOND
   1    1    2 1
   2    1    9 2
   3    1    5 1
   4    2   33 1
   5    2    3 1
   6    2   13 1
   7    3    4 1
   8    3    7 1
   9    3   42 1
  10    4    5 am
  11    4    8 2
  12    5    6 1
  13    6   14 1
  14    6   43 1
  15    6   44 1
  16    7   20 1
  17    7   45 1
  18    7   46 1
  19    9   10 1
  20    9   47 1
  21   10   11 1
  22   10   48 1
  23   10   49 1
  24   11   12 1
  25   11   50 1
  26   11   51 1
  27   12   13 1
  28   12   52 1
  29   12   53 1
  30   13   54 1
  31   13   55 1
  32   14   15 2
  33   14   56 1
  34   15   16 1
  35   15   32 1
  36   16   17 1
  37   16   57 1
  38   16   58 1
  39   17   18 1
  40   17   59 1
  41   17   60 1
  42   18   19 2
  43   18   61 1
  44   19   30 1
  45   19   31 1
  46   20   21 am
  47   20   29 2
  48   21   22 1
  49   21   62 1
  50   22   23 1
  51   22   63 1
  52   22   64 1
  53   23   24 ar
  54   23   25 ar
  55   24   28 ar
  56   24   65 1
  57   25   26 ar
  58   25   66 1
  59   26   27 ar
  60   26   38 1
  61   27   28 ar
  62   27   40 1
  63   28   67 1
  64   30   68 1
  65   30   69 1
  66   30   70 1
  67   31   71 1
  68   31   72 1
  69   31   73 1
  70   32   74 1
  71   32   75 1
  72   32   76 1
  73   33   34 2
  74   33   35 1
  75   35   37 1
  76   36   37 1
  77   36   77 1
  78   36   78 1
  79   36   79 1
  80   37   80 1
  81   37   81 1
  82   38   39 1
  83   39   82 1
  84   39   83 1
  85   39   84 1
  86   40   41 1
  87   41   85 1
  88   41   86 1
  89   41   87 1

#	End of record

