#	Name: ASD01915453
#	Creating user name:	WinNT
#	Creation time:	15. 06. 2019 20:05

#	Modifying user name:	WinNT
#	Modification time:	15. 06. 2019 20:05

#	Program:	/corina/corina34_cracker 3.40 0067  02.08.2006

@<TRIPOS>MOLECULE
ASD01915453
  37   39    0    0    0
SMALL
NO_CHARGES


@<TRIPOS>ATOM
   1 C1            -0.4105     1.7402     0.1048 C.ar    
   2 C2            -0.5432     0.3900     0.3735 C.ar    
   3 N3             0.5000    -0.3401     0.7068 N.ar    
   4 C4             1.7179     0.1814     0.7998 C.ar    
   5 C5             1.9313     1.5323     0.5446 C.ar    
   6 C6             0.8475     2.3312     0.1896 C.ar    
   7 C7            -1.9023    -0.2547     0.2837 C.3     
   8 O8             1.0132     3.6537    -0.0676 O.3     
   9 C9             2.2648     4.1723     0.0384 C.ar    
  10 C10            3.1951     3.9765    -0.9721 C.ar    
  11 N11            4.4109     4.4767    -0.8749 N.ar    
  12 C12            4.7920     5.1775     0.1748 C.ar    
  13 C13            3.9201     5.4161     1.2242 C.ar    
  14 C14            2.6294     4.9118     1.1590 C.ar    
  15 C15            2.8595    -0.6830     1.1792 C.2     
  16 N16            2.6596    -1.9924     1.4282 N.am    
  17 O17            3.9761    -0.2116     1.2659 O.2     
  18 C18            3.7459    -2.8271     1.6818 C.ar    
  19 C19            3.5449    -4.1943     1.8223 C.ar    
  20 C20            4.6352    -5.0133     2.0744 C.ar    
  21 C21            5.8931    -4.4288     2.1770 C.ar    
  22 C22            6.0169    -3.0626     2.0259 C.ar    
  23 N23            4.9611    -2.3100     1.7812 N.ar    
  24 F24            4.3201     6.1354     2.2956 F       
  25 F25            4.4792    -6.3476     2.2176 F       
  26 H26           -1.2725     2.3289    -0.1721 H       
  27 H27            2.9222     1.9549     0.6210 H       
  28 H28           -2.0632    -0.6238    -0.7292 H       
  29 H29           -1.9572    -1.0862     0.9864 H       
  30 H30           -2.6697     0.4795     0.5291 H       
  31 H31            2.9203     3.4076    -1.8481 H       
  32 H32            5.7972     5.5702     0.2171 H       
  33 H33            1.9276     5.0818     1.9620 H       
  34 H34            1.7594    -2.3537     1.4309 H       
  35 H35            2.5533    -4.6136     1.7367 H       
  36 H36            6.7635    -5.0374     2.3731 H       
  37 H37            6.9915    -2.6039     2.1046 H       
@<TRIPOS>BOND
   1    1    2 ar
   2    1    6 ar
   3    1   26 1
   4    2    3 ar
   5    2    7 1
   6    3    4 ar
   7    4    5 ar
   8    4   15 1
   9    5    6 ar
  10    5   27 1
  11    6    8 1
  12    7   28 1
  13    7   29 1
  14    7   30 1
  15    8    9 1
  16    9   10 ar
  17    9   14 ar
  18   10   11 ar
  19   10   31 1
  20   11   12 ar
  21   12   13 ar
  22   12   32 1
  23   13   14 ar
  24   13   24 1
  25   14   33 1
  26   15   16 am
  27   15   17 2
  28   16   18 1
  29   16   34 1
  30   18   19 ar
  31   18   23 ar
  32   19   20 ar
  33   19   35 1
  34   20   21 ar
  35   20   25 1
  36   21   22 ar
  37   21   36 1
  38   22   23 ar
  39   22   37 1

#	End of record

