#	Name: ASD02508281
#	Creating user name:	WinNT
#	Creation time:	15. 06. 2019 20:24

#	Modifying user name:	WinNT
#	Modification time:	15. 06. 2019 20:24

#	Program:	/corina/corina34_cracker 3.40 0067  02.08.2006

@<TRIPOS>MOLECULE
ASD02508281
  36   38    0    0    0
SMALL
NO_CHARGES


@<TRIPOS>ATOM
   1 C1            -0.0711     1.3040     0.3832 C.ar    
   2 C2            -0.0631    -0.0707     0.1479 C.ar    
   3 C3            -1.2588    -0.7657     0.0559 C.ar    
   4 C4            -2.4570    -0.0933     0.1977 C.ar    
   5 C5            -2.4660     1.2710     0.4308 C.ar    
   6 C6            -1.2783     1.9693     0.5291 C.ar    
   7 S7            -3.9782    -0.9747     0.0811 S.o2    
   8 N8            -4.7831    -0.3902    -1.2428 N.am    
   9 C9            -4.2726    -0.6106    -2.5241 C.ar    
  10 O10            1.2207     1.7129     0.4242 O.3     
  11 C11            2.0242     0.6563     0.2254 C.2     
  12 N12            1.2753    -0.4509     0.0529 N.am    
  13 O13           -3.6394    -2.3220    -0.2178 O.2     
  14 O14           -4.7470    -0.6001     1.2159 O.2     
  15 O15            3.2395     0.6924     0.2044 O.2     
  16 C16            1.7758    -1.8061    -0.1905 C.3     
  17 C17           -5.1134    -1.0365    -3.5445 C.ar    
  18 C18           -3.7777     1.9971     0.5833 C.3     
  19 C19           -2.9243    -0.3989    -2.7819 C.ar    
  20 C20           -2.4221    -0.6172    -4.0500 C.ar    
  21 C21           -3.2597    -1.0456    -5.0629 C.ar    
  22 C22           -4.6050    -1.2531    -4.8111 C.ar    
  23 Cl23          -5.6531    -1.7911    -6.0862 Cl      
  24 H24           -1.2536    -1.8302    -0.1266 H       
  25 H25           -1.2904     3.0337     0.7114 H       
  26 H26           -5.6092     0.1053    -1.1285 H       
  27 H27            2.8655    -1.7924    -0.2134 H       
  28 H28            1.4374    -2.4672     0.6074 H       
  29 H29            1.3969    -2.1671    -1.1466 H       
  30 H30           -6.1630    -1.1984    -3.3482 H       
  31 H31           -4.1203     1.9155     1.6148 H       
  32 H32           -3.6432     3.0480     0.3272 H       
  33 H33           -4.5183     1.5529    -0.0818 H       
  34 H34           -2.2691    -0.0635    -1.9915 H       
  35 H35           -1.3737    -0.4526    -4.2506 H       
  36 H36           -2.8644    -1.2151    -6.0536 H       
@<TRIPOS>BOND
   1    1    2 ar
   2    1   10 1
   3    1    6 ar
   4    2    3 ar
   5    2   12 1
   6    3    4 ar
   7    3   24 1
   8    4    5 ar
   9    4    7 1
  10    5    6 ar
  11    5   18 1
  12    6   25 1
  13    7    8 am
  14    7   13 2
  15    7   14 2
  16    8    9 1
  17    8   26 1
  18    9   17 ar
  19    9   19 ar
  20   10   11 1
  21   11   12 am
  22   11   15 2
  23   12   16 1
  24   16   27 1
  25   16   28 1
  26   16   29 1
  27   17   22 ar
  28   17   30 1
  29   18   31 1
  30   18   32 1
  31   18   33 1
  32   19   20 ar
  33   19   34 1
  34   20   21 ar
  35   20   35 1
  36   21   22 ar
  37   21   36 1
  38   22   23 1

#	End of record

