#	Name: ASD01150584
#	Creating user name:	WinNT
#	Creation time:	15. 06. 2019 19:04

#	Modifying user name:	WinNT
#	Modification time:	15. 06. 2019 19:04

#	Program:	/corina/corina34_cracker 3.40 0067  02.08.2006

@<TRIPOS>MOLECULE
ASD01150584
  50   53    0    0    0
SMALL
NO_CHARGES


@<TRIPOS>ATOM
   1 C1             0.6115     1.6555    -0.7941 C.ar    
   2 C2             0.6199     0.2882    -0.9915 C.ar    
   3 C3             2.0307     0.0167     0.9348 C.ar    
   4 C4             2.0237     1.3892     1.1341 C.ar    
   5 C5             1.3133     2.2100     0.2691 C.ar    
   6 N6             1.3043     3.5956     0.4676 N.am    
   7 C7             0.1370     4.2622     0.4349 C.2     
   8 N8             0.0916     5.5945     0.6217 N.am    
   9 C9             1.2290     6.2845     0.8463 C.2     
  10 C10            2.5090     5.5614     0.8833 C.2     
  11 N11            2.5100     4.2668     0.7029 N.2     
  12 O12            1.1962     7.4892     1.0157 O.2     
  13 C13           -1.1939     6.2959     0.5806 C.3     
  14 O14           -0.8950     3.6513     0.2329 O.2     
  15 C15           -1.8341     6.2519     1.9442 C.ar    
  16 O16            3.6715     6.2277     1.1072 O.3     
  17 C17            4.8709     5.4510     1.1275 C.3     
  18 C18            1.3268    -0.5331    -0.1314 C.ar    
  19 N19            2.7467    -0.8145     1.8052 N.am    
  20 C20            3.0852    -0.3728     3.0328 C.2     
  21 C21            3.9428    -1.2267     3.9308 C.3     
  22 O22            2.6995     0.7119     3.4147 O.2     
  23 C23           -1.1434     5.7146     3.0158 C.ar    
  24 C24           -1.7354     5.6773     4.2650 C.ar    
  25 C25           -3.0112     6.1692     4.4467 C.ar    
  26 C26           -3.7149     6.7076     3.3721 C.ar    
  27 C27           -3.1047     6.7517     2.1252 C.ar    
  28 F28            1.3331    -1.8698    -0.3271 F       
  29 O29           -4.9733     7.2248     3.3235 O.3     
  30 C30           -5.1044     8.0403     2.1466 C.3     
  31 C31           -4.0883     7.4023     1.1717 C.3     
  32 H32            0.0624     2.2946    -1.4697 H       
  33 H33            0.0733    -0.1404    -1.8185 H       
  34 H34            2.5698     1.8186     1.9610 H       
  35 H35           -1.0325     7.3335     0.2883 H       
  36 H36           -1.8488     5.8120    -0.1440 H       
  37 H37            4.8056     4.7023     1.9171 H       
  38 H38            4.9985     4.9545     0.1656 H       
  39 H39            5.7233     6.1038     1.3154 H       
  40 H40            2.9991    -1.7081     1.5247 H       
  41 H41            4.1892    -2.1576     3.4201 H       
  42 H42            4.8607    -0.6911     4.1731 H       
  43 H43            3.3987    -1.4489     4.8488 H       
  44 H44           -0.1456     5.3253     2.8771 H       
  45 H45           -1.1960     5.2606     5.1027 H       
  46 H46           -3.4661     6.1363     5.4256 H       
  47 H47           -6.1163     7.9805     1.7461 H       
  48 H48           -4.8331     9.0740     2.3609 H       
  49 H49           -3.5979     8.1646     0.5663 H       
  50 H50           -4.5702     6.6559     0.5403 H       
@<TRIPOS>BOND
   1    1    2 ar
   2    1    5 ar
   3    1   32 1
   4    2   18 ar
   5    2   33 1
   6    3    4 ar
   7    3   19 1
   8    3   18 ar
   9    4    5 ar
  10    4   34 1
  11    5    6 1
  12    6    7 am
  13    6   11 1
  14    7    8 am
  15    7   14 2
  16    8    9 am
  17    8   13 1
  18    9   10 1
  19    9   12 2
  20   10   11 2
  21   10   16 1
  22   13   15 1
  23   13   35 1
  24   13   36 1
  25   15   23 ar
  26   15   27 ar
  27   16   17 1
  28   17   37 1
  29   17   38 1
  30   17   39 1
  31   18   28 1
  32   19   20 am
  33   19   40 1
  34   20   21 1
  35   20   22 2
  36   21   41 1
  37   21   42 1
  38   21   43 1
  39   23   24 ar
  40   23   44 1
  41   24   25 ar
  42   24   45 1
  43   25   26 ar
  44   25   46 1
  45   26   27 ar
  46   26   29 1
  47   27   31 1
  48   29   30 1
  49   30   31 1
  50   30   47 1
  51   30   48 1
  52   31   49 1
  53   31   50 1

#	End of record

