#	Name: ASD02440047
#	Creating user name:	WinNT
#	Creation time:	15. 06. 2019 20:21

#	Modifying user name:	WinNT
#	Modification time:	15. 06. 2019 20:21

#	Program:	/corina/corina34_cracker 3.40 0067  02.08.2006

@<TRIPOS>MOLECULE
ASD02440047
  54   57    0    0    0
SMALL
NO_CHARGES


@<TRIPOS>ATOM
   1 N1             3.4537     5.1468     0.6637 N.am    
   2 C2             4.7523     5.2176     0.9773 C.2     
   3 S3             5.4160     3.5840     0.7989 S.3     
   4 C4             3.8757     2.8592     0.2969 C.2     
   5 C5             2.9313     3.9850     0.3076 C.2     
   6 S6             5.6096     6.6190     1.4591 S.2     
   7 C7             2.6148     6.3465     0.7200 C.3     
   8 C8             2.6391     7.0397    -0.6178 C.ar    
   9 O9             1.7578     3.8580     0.0118 O.2     
  10 C10            3.6276     1.5651    -0.0235 C.2     
  11 C11            4.7393     0.6097    -0.1363 C.ar    
  12 C12            4.4981    -0.7647    -0.0321 C.ar    
  13 C13            5.5443    -1.6569    -0.1390 C.ar    
  14 C14            6.8322    -1.1984    -0.3486 C.ar    
  15 C15            7.0829     0.1640    -0.4531 C.ar    
  16 C16            6.0420     1.0700    -0.3540 C.ar    
  17 C17            3.6293     8.6376    -2.1015 C.ar    
  18 C18            3.6016     7.9988    -0.8791 C.ar    
  19 C19            1.7022     6.7102    -1.5813 C.ar    
  20 C20            1.7186     7.3408    -2.8080 C.ar    
  21 C21            2.6836     8.3137    -3.0764 C.ar    
  22 C22            2.7068     8.9939    -4.3875 C.2     
  23 O23            3.5498     9.8371    -4.6194 O.2     
  24 O24            1.7930     8.6791    -5.3259 O.3     
  25 O25            8.3513     0.6070    -0.6586 O.3     
  26 C26            9.3765    -0.3836    -0.7571 C.3     
  27 C27           10.7259     0.3001    -0.9864 C.3     
  28 C28           11.8071    -0.7445    -1.0903 C.ar    
  29 C29           12.4701    -1.1684     0.0462 C.ar    
  30 C30           12.1319    -1.2830    -2.3213 C.ar    
  31 C31           13.1237    -2.2412    -2.4166 C.ar    
  32 C32           13.7910    -2.6606    -1.2810 C.ar    
  33 C33           13.4618    -2.1267    -0.0491 C.ar    
  34 H34            1.5910     6.0628     0.9638 H       
  35 H35            2.9970     7.0214     1.4859 H       
  36 H36            2.6134     1.2363    -0.1958 H       
  37 H37            3.4938    -1.1264     0.1323 H       
  38 H38            5.3573    -2.7176    -0.0585 H       
  39 H39            7.6468    -1.9027    -0.4310 H       
  40 H40            6.2360     2.1294    -0.4351 H       
  41 H41            4.3807     9.3865    -2.3039 H       
  42 H42            4.3327     8.2481    -0.1243 H       
  43 H43            0.9566     5.9573    -1.3725 H       
  44 H44            0.9870     7.0825    -3.5592 H       
  45 H45            1.8482     9.1509    -6.1682 H       
  46 H46            9.4139    -0.9608     0.1667 H       
  47 H47            9.1597    -1.0490    -1.5928 H       
  48 H48           10.6884     0.8774    -1.9102 H       
  49 H49           10.9427     0.9655    -0.1507 H       
  50 H50           12.2135    -0.7507     1.0085 H       
  51 H51           11.6106    -0.9552    -3.2086 H       
  52 H52           13.3770    -2.6623    -3.3783 H       
  53 H53           14.5656    -3.4095    -1.3554 H       
  54 H54           13.9801    -2.4576     0.8388 H       
@<TRIPOS>BOND
   1    1    2 am
   2    1    5 am
   3    1    7 1
   4    2    3 1
   5    2    6 2
   6    3    4 1
   7    4    5 1
   8    4   10 2
   9    5    9 2
  10    7    8 1
  11    7   34 1
  12    7   35 1
  13    8   19 ar
  14    8   18 ar
  15   10   11 1
  16   10   36 1
  17   11   12 ar
  18   11   16 ar
  19   12   13 ar
  20   12   37 1
  21   13   14 ar
  22   13   38 1
  23   14   15 ar
  24   14   39 1
  25   15   16 ar
  26   15   25 1
  27   16   40 1
  28   17   18 ar
  29   17   21 ar
  30   17   41 1
  31   18   42 1
  32   19   20 ar
  33   19   43 1
  34   20   21 ar
  35   20   44 1
  36   21   22 1
  37   22   23 2
  38   22   24 1
  39   24   45 1
  40   25   26 1
  41   26   27 1
  42   26   46 1
  43   26   47 1
  44   27   28 1
  45   27   48 1
  46   27   49 1
  47   28   30 ar
  48   28   29 ar
  49   29   33 ar
  50   29   50 1
  51   30   31 ar
  52   30   51 1
  53   31   32 ar
  54   31   52 1
  55   32   33 ar
  56   32   53 1
  57   33   54 1

#	End of record

