#	Name: ASD01911827
#	Creating user name:	WinNT
#	Creation time:	15. 06. 2019 19:58

#	Modifying user name:	WinNT
#	Modification time:	15. 06. 2019 19:58

#	Program:	/corina/corina34_cracker 3.40 0067  02.08.2006

@<TRIPOS>MOLECULE
ASD01911827
  43   45    0    0    0
SMALL
NO_CHARGES


@<TRIPOS>ATOM
   1 C1             0.1459     0.8382    -1.0235 C.2     
   2 N2             0.0468    -0.3408    -0.3296 N.pl3   
   3 C3             1.2104    -1.0303    -0.0043 C.2     
   4 C4             2.4544    -0.4821    -0.4062 C.2     
   5 C5             2.4547     0.6890    -1.0894 C.2     
   6 N6             1.3030     1.3137    -1.3770 N.2     
   7 C7             0.8701    -2.1596     0.6774 C.2     
   8 C8            -0.5441    -2.1789     0.7825 C.2     
   9 C9            -1.0193    -1.0363     0.1471 C.2     
  10 C10           -1.3550    -3.2121     1.4385 C.2     
  11 O11           -1.6311    -3.1102     2.6192 O.2     
  12 N12           -1.7936    -4.2733     0.7329 N.am    
  13 N13           -2.3493    -0.6705     0.0218 N.pl3   
  14 C14           -2.8404     0.4330     0.7267 C.ar    
  15 C15           -4.1913     0.7596     0.6580 C.ar    
  16 C16           -4.6727     1.8509     1.3567 C.ar    
  17 C17           -3.8123     2.6175     2.1228 C.ar    
  18 C18           -2.4693     2.2947     2.1925 C.ar    
  19 C19           -1.9824     1.2019     1.5013 C.ar    
  20 I20           -4.5457     4.2714     3.1791 I       
  21 F21           -5.0310     0.0115    -0.0908 F       
  22 O22           -2.5757    -5.2699     1.3656 O.3     
  23 C23           -2.9709    -6.3355     0.4994 C.3     
  24 C24           -3.8065    -7.3481     1.2851 C.3     
  25 C25           -4.1246    -8.5491     0.3921 C.3     
  26 O26           -4.8041    -9.5457     1.1583 O.3     
  27 O27           -5.0251    -6.7336     1.7088 O.3     
  28 Cl28           1.9647    -3.3537     1.3018 Cl      
  29 H29           -0.7523     1.3781    -1.2843 H       
  30 H30            3.3809    -0.9858    -0.1733 H       
  31 H31            3.3917     1.1235    -1.4048 H       
  32 H32           -1.5734    -4.3545    -0.2083 H       
  33 H33           -2.9402    -1.1797    -0.5548 H       
  34 H34           -5.7209     2.1056     1.3043 H       
  35 H35           -1.8009     2.8954     2.7915 H       
  36 H36           -0.9341     0.9486     1.5600 H       
  37 H37           -3.5642    -5.9346    -0.3224 H       
  38 H38           -2.0839    -6.8277     0.1008 H       
  39 H39           -3.2457    -7.6827     2.1578 H       
  40 H40           -4.7603    -8.2295    -0.4337 H       
  41 H41           -3.1972    -8.9640    -0.0027 H       
  42 H42           -5.0374   -10.3376     0.6549 H       
  43 H43           -5.5762    -6.4111     0.9826 H       
@<TRIPOS>BOND
   1    1    2 1
   2    1    6 2
   3    1   29 1
   4    2    3 1
   5    2    9 1
   6    3    4 1
   7    3    7 2
   8    4    5 2
   9    4   30 1
  10    5    6 1
  11    5   31 1
  12    7    8 1
  13    7   28 1
  14    8    9 2
  15    8   10 1
  16    9   13 1
  17   10   11 2
  18   10   12 am
  19   12   22 1
  20   12   32 1
  21   13   14 1
  22   13   33 1
  23   14   15 ar
  24   14   19 ar
  25   15   16 ar
  26   15   21 1
  27   16   17 ar
  28   16   34 1
  29   17   18 ar
  30   17   20 1
  31   18   19 ar
  32   18   35 1
  33   19   36 1
  34   22   23 1
  35   23   24 1
  36   23   37 1
  37   23   38 1
  38   24   25 1
  39   24   27 1
  40   24   39 1
  41   25   26 1
  42   25   40 1
  43   25   41 1
  44   26   42 1
  45   27   43 1

#	End of record

