#	Name: ASD01917362
#	Creating user name:	WinNT
#	Creation time:	15. 06. 2019 20:09

#	Modifying user name:	WinNT
#	Modification time:	15. 06. 2019 20:09

#	Program:	/corina/corina34_cracker 3.40 0067  02.08.2006

@<TRIPOS>MOLECULE
ASD01917362
  52   55    0    0    0
SMALL
NO_CHARGES


@<TRIPOS>ATOM
   1 C1            -0.0180     1.4742     0.0101 C.2     
   2 C2             0.0021    -0.0041     0.0020 C.ar    
   3 C3             1.2173    -0.6995    -0.0133 C.ar    
   4 C4             1.1813    -2.0826    -0.0199 C.ar    
   5 C5            -0.0424    -2.7281    -0.0112 C.ar    
   6 N6            -1.1719    -2.0465     0.0032 N.ar    
   7 C7            -1.1895    -0.7297     0.0154 C.ar    
   8 O8             1.0263     2.0962     0.0035 O.2     
   9 N9            -1.1942     2.1321     0.0193 N.am    
  10 C10            2.4614    -2.8775    -0.0369 C.3     
  11 C11           -1.2141     3.5970     0.0274 C.3     
  12 C12           -0.4908     4.1900     1.2492 C.3     
  13 C13           -0.3553     5.7025     1.0628 C.3     
  14 C14           -1.7287     6.3350     0.8299 C.3     
  15 C15           -2.3987     5.6497    -0.3739 C.3     
  16 C16           -1.3372     5.5375    -1.4925 C.3     
  17 C17           -0.5655     4.2081    -1.2361 C.3     
  18 C18           -2.6537     4.1756     0.0378 C.3     
  19 C19           -3.5419     7.6321    -1.2107 C.2     
  20 C20           -4.7648     8.3347    -1.6546 C.ar    
  21 C21           -4.6971     9.6666    -2.0662 C.ar    
  22 C22           -5.8438    10.3172    -2.4798 C.ar    
  23 C23           -7.0580     9.6490    -2.4859 C.ar    
  24 C24           -7.1294     8.3292    -2.0788 C.ar    
  25 C25           -5.9902     7.6671    -1.6691 C.ar    
  26 O26           -2.4750     8.2144    -1.2037 O.2     
  27 N27           -3.6103     6.3459    -0.8138 N.am    
  28 F28           -5.7814    11.6065    -2.8783 F       
  29 H29            2.1585    -0.1699    -0.0202 H       
  30 H30           -0.0735    -3.8076    -0.0167 H       
  31 H31           -2.1345    -0.2071     0.0314 H       
  32 H32           -2.0276     1.6358     0.0206 H       
  33 H33            2.7805    -3.0744     0.9866 H       
  34 H34            2.2953    -3.8227    -0.5538 H       
  35 H35            3.2344    -2.3106    -0.5557 H       
  36 H36           -1.0682     3.9839     2.1504 H       
  37 H37            0.4995     3.7435     1.3389 H       
  38 H38            0.0952     6.1369     1.9552 H       
  39 H39            0.2850     5.9041     0.2041 H       
  40 H40           -2.3474     6.2003     1.7171 H       
  41 H41           -1.6101     7.3988     0.6244 H       
  42 H42           -1.8228     5.5053    -2.4679 H       
  43 H43           -0.6502     6.3823    -1.4431 H       
  44 H44            0.4889     4.4151    -1.0533 H       
  45 H45           -0.6732     3.5263    -2.0797 H       
  46 H46           -3.2872     3.6604    -0.6842 H       
  47 H47           -3.0860     4.1300     1.0374 H       
  48 H48           -3.7511    10.1875    -2.0611 H       
  49 H49           -7.9521    10.1611    -2.8095 H       
  50 H50           -8.0786     7.8140    -2.0859 H       
  51 H51           -6.0475     6.6351    -1.3559 H       
  52 H52           -4.4617     5.8812    -0.8193 H       
@<TRIPOS>BOND
   1    1    2 1
   2    1    8 2
   3    1    9 am
   4    2    3 ar
   5    2    7 ar
   6    3    4 ar
   7    3   29 1
   8    4    5 ar
   9    4   10 1
  10    5    6 ar
  11    5   30 1
  12    6    7 ar
  13    7   31 1
  14    9   11 1
  15    9   32 1
  16   10   33 1
  17   10   34 1
  18   10   35 1
  19   11   12 1
  20   11   17 1
  21   11   18 1
  22   12   13 1
  23   12   36 1
  24   12   37 1
  25   13   14 1
  26   13   38 1
  27   13   39 1
  28   14   15 1
  29   14   40 1
  30   14   41 1
  31   15   16 1
  32   15   18 1
  33   15   27 1
  34   16   17 1
  35   16   42 1
  36   16   43 1
  37   17   44 1
  38   17   45 1
  39   18   46 1
  40   18   47 1
  41   19   20 1
  42   19   26 2
  43   19   27 am
  44   20   21 ar
  45   20   25 ar
  46   21   22 ar
  47   21   48 1
  48   22   23 ar
  49   22   28 1
  50   23   24 ar
  51   23   49 1
  52   24   25 ar
  53   24   50 1
  54   25   51 1
  55   27   52 1

#	End of record

