#	Name: ASD01910204
#	Creating user name:	WinNT
#	Creation time:	15. 06. 2019 19:55

#	Modifying user name:	WinNT
#	Modification time:	15. 06. 2019 19:55

#	Program:	/corina/corina34_cracker 3.40 0067  02.08.2006

@<TRIPOS>MOLECULE
ASD01910204
  37   40    0    0    0
SMALL
NO_CHARGES


@<TRIPOS>ATOM
   1 C1            -0.0167     1.3776     0.0096 C.ar    
   2 C2             0.0021    -0.0041     0.0020 C.ar    
   3 C3             1.2067    -0.6907    -0.0127 C.ar    
   4 C4             2.3990     0.0145    -0.0203 C.ar    
   5 C5             2.3799     1.4245    -0.0130 C.ar    
   6 C6             1.1688     2.0968     0.0022 C.ar    
   7 C7             3.8259    -0.3703    -0.0360 C.2     
   8 N8             4.5719     0.7492    -0.0376 N.am    
   9 C9             3.7959     1.8480    -0.0245 C.2     
  10 O10            4.1925     2.9959    -0.0232 O.2     
  11 O11            4.2535    -1.5070    -0.0459 O.2     
  12 C12            5.9735     0.7682    -0.0506 C.ar    
  13 C13            6.6842    -0.4253    -0.0630 C.ar    
  14 C14            8.0667    -0.4120    -0.0763 C.ar    
  15 C15            8.7497     0.7868    -0.0774 C.ar    
  16 C16            8.0445     1.9917    -0.0650 C.ar    
  17 C17            6.6500     1.9779    -0.0569 C.ar    
  18 C18            8.7736     3.2780    -0.0660 C.2     
  19 N19           10.1213     3.2887    -0.0790 N.am    
  20 C20           10.8437     4.5632    -0.0800 C.3     
  21 O21            8.1576     4.3258    -0.0552 O.2     
  22 C22           12.2676     4.5686     0.4799 C.3     
  23 C23           12.0377     4.6977    -1.0272 C.3     
  24 H24           -0.9613     1.9010     0.0169 H       
  25 H25           -0.9280    -0.5530     0.0079 H       
  26 H26            1.2153    -1.7706    -0.0179 H       
  27 H27            1.1481     3.1766     0.0074 H       
  28 H28            6.1550    -1.3667    -0.0619 H       
  29 H29            8.6138    -1.3432    -0.0856 H       
  30 H30            9.8296     0.7931    -0.0875 H       
  31 H31            6.0990     2.9068    -0.0476 H       
  32 H32           10.6129     2.4525    -0.0876 H       
  33 H33           10.2330     5.4499     0.0895 H       
  34 H34           12.5937     5.4590     1.0173 H       
  35 H35           12.6669     3.6239     0.8490 H       
  36 H36           12.2857     3.8379    -1.6497 H       
  37 H37           12.2126     5.6731    -1.4813 H       
@<TRIPOS>BOND
   1    1    2 ar
   2    1    6 ar
   3    1   24 1
   4    2    3 ar
   5    2   25 1
   6    3    4 ar
   7    3   26 1
   8    4    5 ar
   9    4    7 1
  10    5    6 ar
  11    5    9 1
  12    6   27 1
  13    7    8 am
  14    7   11 2
  15    8    9 am
  16    8   12 1
  17    9   10 2
  18   12   13 ar
  19   12   17 ar
  20   13   14 ar
  21   13   28 1
  22   14   15 ar
  23   14   29 1
  24   15   16 ar
  25   15   30 1
  26   16   17 ar
  27   16   18 1
  28   17   31 1
  29   18   19 am
  30   18   21 2
  31   19   20 1
  32   19   32 1
  33   20   22 1
  34   20   23 1
  35   20   33 1
  36   22   23 1
  37   22   34 1
  38   22   35 1
  39   23   36 1
  40   23   37 1

#	End of record

