#	Name: ASD07932212
#	Creating user name:	WinNT
#	Creation time:	15. 06. 2019 21:14

#	Modifying user name:	WinNT
#	Modification time:	15. 06. 2019 21:14

#	Program:	/corina/corina34_cracker 3.40 0067  02.08.2006

@<TRIPOS>MOLECULE
ASD07932212
  69   71    0    0    0
SMALL
NO_CHARGES


@<TRIPOS>ATOM
   1 Cl1            0.0000     0.0000     0.0000 Cl      
   2 H2             0.0000     1.3700     0.0000 H       
   3 Cl3            5.0000     6.3700     5.0000 Cl      
   4 H4             5.0000     7.7400     5.0000 H       
   5 C5            10.9496    21.2980    13.0849 C.ar    
   6 C6            10.9798    19.9052    13.0813 C.ar    
   7 C7            12.1600    19.2304    12.9993 C.ar    
   8 C8            13.3654    19.9446    12.9166 C.ar    
   9 C9            13.3407    21.3639    12.9193 C.ar    
  10 C10           12.0986    22.0263    13.0061 C.ar    
  11 C11           14.6039    19.2806    12.8312 C.ar    
  12 C12           15.7377    20.0363    12.7538 C.ar    
  13 C13           15.6448    21.4363    12.7611 C.ar    
  14 N14           14.4801    22.0496    12.8420 N.ar    
  15 C15           16.8845    22.2447    12.6769 C.2     
  16 N16           16.8131    23.5906    12.6827 N.am    
  17 O17           17.9651    21.6940    12.6028 O.2     
  18 C18           18.0383    24.3895    12.5996 C.3     
  19 C19           17.7951    25.7630    13.2282 C.3     
  20 C20           19.0747    26.5974    13.1413 C.3     
  21 C21           19.4716    26.7711    11.6740 C.3     
  22 C22           19.7148    25.3976    11.0454 C.3     
  23 C23           18.4353    24.5632    11.1322 C.3     
  24 O24           17.4244    25.6008    14.5987 O.3     
  25 C25           14.6757    17.7753    12.8257 C.3     
  26 N26           14.4667    17.2702    14.1892 N.3     
  27 C27           14.1643    15.8332    14.1775 C.3     
  28 C28           13.8105    15.3735    15.5936 C.3     
  29 C29           14.9904    15.6582    16.5271 C.3     
  30 C30           15.3159    17.1538    16.4840 C.3     
  31 C31           15.6260    17.5619    15.0420 C.3     
  32 C32           14.6256    15.2626    17.9348 C.ar    
  33 F33           12.0482    23.3763    13.0106 F       
  34 F34           16.1056    14.9247    16.1082 F       
  35 N35           13.5985    15.8388    18.5282 N.ar    
  36 C36           13.2417    15.5247    19.7587 C.ar    
  37 C37           13.9391    14.5720    20.4754 C.ar    
  38 C38           15.0266    13.9433    19.8845 C.ar    
  39 C39           15.3678    14.2964    18.5865 C.ar    
  40 Cl40          15.9340    12.7400    20.7461 Cl      
  41 H41           10.0000    21.8087    13.1467 H       
  42 H42           10.0541    19.3526    13.1449 H       
  43 H43           12.1684    18.1504    12.9983 H       
  44 H44           16.7038    19.5580    12.6875 H       
  45 H45           15.9505    24.0302    12.7420 H       
  46 H46           18.8403    23.8816    13.1353 H       
  47 H47           16.9931    26.2709    12.6925 H       
  48 H48           18.9014    27.5759    13.5891 H       
  49 H49           19.8767    26.0895    13.6770 H       
  50 H50           18.6696    27.2790    11.1383 H       
  51 H51           20.3832    27.3655    11.6121 H       
  52 H52           19.9976    25.5213    10.0000 H       
  53 H53           20.5168    24.8897    11.5811 H       
  54 H54           18.6085    23.5847    10.6844 H       
  55 H55           17.6333    25.0711    10.5965 H       
  56 H56           17.2544    26.4328    15.0613 H       
  57 H57           13.9030    17.3771    12.1682 H       
  58 H58           15.6556    17.4596    12.4676 H       
  59 H59           13.3209    15.6450    13.5132 H       
  60 H60           15.0353    15.2817    13.8236 H       
  61 H61           12.9312    15.9148    15.9429 H       
  62 H62           13.6013    14.3038    15.5873 H       
  63 H63           14.4603    17.7230    16.8473 H       
  64 H64           16.1822    17.3560    17.1138 H       
  65 H65           16.4902    17.0023    14.6840 H       
  66 H66           15.8443    18.6292    15.0056 H       
  67 H67           12.3945    16.0186    20.2111 H       
  68 H68           13.6425    14.3198    21.4828 H       
  69 H69           16.2078    13.8280    18.0951 H       
@<TRIPOS>BOND
   1    1    2 1
   2    3    4 1
   3    5    6 ar
   4    5   10 ar
   5    5   41 1
   6    6    7 ar
   7    6   42 1
   8    7    8 ar
   9    7   43 1
  10    8    9 ar
  11    8   11 ar
  12    9   10 ar
  13    9   14 ar
  14   10   33 1
  15   11   12 ar
  16   11   25 1
  17   12   13 ar
  18   12   44 1
  19   13   14 ar
  20   13   15 1
  21   15   16 am
  22   15   17 2
  23   16   18 1
  24   16   45 1
  25   18   19 1
  26   18   23 1
  27   18   46 1
  28   19   20 1
  29   19   24 1
  30   19   47 1
  31   20   21 1
  32   20   48 1
  33   20   49 1
  34   21   22 1
  35   21   50 1
  36   21   51 1
  37   22   23 1
  38   22   52 1
  39   22   53 1
  40   23   54 1
  41   23   55 1
  42   24   56 1
  43   25   26 1
  44   25   57 1
  45   25   58 1
  46   26   27 1
  47   26   31 1
  48   27   28 1
  49   27   59 1
  50   27   60 1
  51   28   29 1
  52   28   61 1
  53   28   62 1
  54   29   30 1
  55   29   32 1
  56   29   34 1
  57   30   31 1
  58   30   63 1
  59   30   64 1
  60   31   65 1
  61   31   66 1
  62   32   35 ar
  63   32   39 ar
  64   35   36 ar
  65   36   37 ar
  66   36   67 1
  67   37   38 ar
  68   37   68 1
  69   38   39 ar
  70   38   40 1
  71   39   69 1

#	End of record

