#	Name: ASD01190205
#	Creating user name:	WinNT
#	Creation time:	15. 06. 2019 19:08

#	Modifying user name:	WinNT
#	Modification time:	15. 06. 2019 19:08

#	Program:	/corina/corina34_cracker 3.40 0067  02.08.2006

@<TRIPOS>MOLECULE
ASD01190205
  59   64    0    0    0
SMALL
NO_CHARGES


@<TRIPOS>ATOM
   1 C1            -0.0187     1.5258     0.0104 C.3     
   2 C2             0.0112     0.0361     0.3582 C.3     
   3 N3             5.2741     3.4051    -0.2428 N.pl3   
   4 N4             5.6893     2.7262    -1.3930 N.2     
   5 C5             4.7129     2.0024    -1.8627 C.2     
   6 C6             3.5581     2.1900    -0.9902 C.ar    
   7 C7             2.2525     1.6864    -0.9831 C.ar    
   8 C8             1.3875     2.0677     0.0013 C.ar    
   9 C9             1.7909     2.9513     0.9950 C.ar    
  10 C10            3.0601     3.4567     1.0089 C.ar    
  11 C11            3.9648     3.0854     0.0179 C.ar    
  12 C12            6.0684     4.2680     0.5234 C.ar    
  13 C13            7.4238     4.0096     0.6806 C.ar    
  14 C14            8.2051     4.8614     1.4364 C.ar    
  15 C15            7.6378     5.9727     2.0373 C.ar    
  16 C16            6.2864     6.2322     1.8818 C.ar    
  17 C17            5.5027     5.3860     1.1221 C.ar    
  18 F18            8.4038     6.8045     2.7766 F       
  19 F19            0.5856    -0.1363     1.6221 F       
  20 F20           -1.2942    -0.4670     0.3666 F       
  21 F21            0.7694    -0.6505    -0.5962 F       
  22 N22           -1.5990     1.2911    -3.3069 N.am    
  23 C23           -1.1145     0.7440    -2.1501 C.2     
  24 C24           -0.6374     1.7115    -1.3511 C.2     
  25 C25           -0.8324     2.9820    -2.0536 C.ar    
  26 C26           -0.5477     4.3142    -1.7472 C.ar    
  27 C27           -0.8628     5.2981    -2.6412 C.ar    
  28 C28           -1.4640     4.9842    -3.8526 C.ar    
  29 C29           -1.7541     3.6767    -4.1749 C.ar    
  30 C30           -1.4415     2.6587    -3.2797 C.ar    
  31 S31           -2.2686     0.4353    -4.5565 S.o2    
  32 O32           -1.6429     0.9026    -5.7436 O.2     
  33 O33           -2.2599    -0.9289    -4.1586 O.2     
  34 C34           -3.9617     0.9108    -4.6661 C.ar    
  35 C35           -4.3303     1.9745    -5.4683 C.ar    
  36 C36           -5.6585     2.3476    -5.5543 C.ar    
  37 C37           -6.6183     1.6567    -4.8385 C.ar    
  38 C38           -6.2498     0.5924    -4.0370 C.ar    
  39 C39           -4.9221     0.2166    -3.9544 C.ar    
  40 O40           -0.7932     2.2271     0.9853 O.3     
  41 H41            4.7513     1.3755    -2.7413 H       
  42 H42            1.9311     0.9999    -1.7524 H       
  43 H43            1.0924     3.2424     1.7656 H       
  44 H44            3.3609     4.1429     1.7867 H       
  45 H45            7.8665     3.1428     0.2124 H       
  46 H46            9.2591     4.6605     1.5591 H       
  47 H47            5.8459     7.0992     2.3515 H       
  48 H48            4.4499     5.5914     0.9971 H       
  49 H49           -1.1160    -0.3100    -1.9146 H       
  50 H50           -0.0804     4.5660    -0.8066 H       
  51 H51           -0.6427     6.3284    -2.4035 H       
  52 H52           -1.7071     5.7730    -4.5490 H       
  53 H53           -2.2222     3.4427    -5.1197 H       
  54 H54           -3.5804     2.5143    -6.0276 H       
  55 H55           -5.9464     3.1791    -6.1805 H       
  56 H56           -7.6559     1.9486    -4.9051 H       
  57 H57           -6.9996     0.0528    -3.4775 H       
  58 H58           -4.6346    -0.6173    -3.3311 H       
  59 H59           -0.8553     3.1791     0.8276 H       
@<TRIPOS>BOND
   1    1    2 1
   2    1    8 1
   3    1   24 1
   4    1   40 1
   5    2   19 1
   6    2   20 1
   7    2   21 1
   8    3    4 1
   9    3   11 1
  10    3   12 1
  11    4    5 2
  12    5    6 1
  13    5   41 1
  14    6    7 ar
  15    6   11 ar
  16    7    8 ar
  17    7   42 1
  18    8    9 ar
  19    9   10 ar
  20    9   43 1
  21   10   11 ar
  22   10   44 1
  23   12   13 ar
  24   12   17 ar
  25   13   14 ar
  26   13   45 1
  27   14   15 ar
  28   14   46 1
  29   15   16 ar
  30   15   18 1
  31   16   17 ar
  32   16   47 1
  33   17   48 1
  34   22   23 1
  35   22   30 1
  36   22   31 am
  37   23   24 2
  38   23   49 1
  39   24   25 1
  40   25   26 ar
  41   25   30 ar
  42   26   27 ar
  43   26   50 1
  44   27   28 ar
  45   27   51 1
  46   28   29 ar
  47   28   52 1
  48   29   30 ar
  49   29   53 1
  50   31   32 2
  51   31   33 2
  52   31   34 1
  53   34   35 ar
  54   34   39 ar
  55   35   36 ar
  56   35   54 1
  57   36   37 ar
  58   36   55 1
  59   37   38 ar
  60   37   56 1
  61   38   39 ar
  62   38   57 1
  63   39   58 1
  64   40   59 1

#	End of record

