#	Name: ASD01882484
#	Creating user name:	WinNT
#	Creation time:	15. 06. 2019 19:44

#	Modifying user name:	WinNT
#	Modification time:	15. 06. 2019 19:44

#	Program:	/corina/corina34_cracker 3.40 0067  02.08.2006

@<TRIPOS>MOLECULE
ASD01882484
  57   62    0    0    0
SMALL
NO_CHARGES


@<TRIPOS>ATOM
   1 C1             0.5901     2.8135     1.6874 C.3     
   2 C2             0.9446     1.3476     1.6970 C.2     
   3 C3             2.2125     1.2335     2.0553 C.2     
   4 C4             2.8117     2.5566     2.3118 C.ar    
   5 C5             4.0964     2.9385     2.7058 C.ar    
   6 C6             4.3953     4.2738     2.8766 C.ar    
   7 C7             3.4286     5.2397     2.6597 C.ar    
   8 C8             2.1526     4.8705     2.2693 C.ar    
   9 C9             1.8444     3.5411     2.0955 C.ar    
  10 N10           -2.1770     2.8234     0.8887 N.3     
  11 C11           -1.1305     2.5104    -0.0928 C.3     
  12 C12            0.1600     3.2423     0.2853 C.3     
  13 C13           -0.5333     3.0906     2.6855 C.3     
  14 C14           -1.8021     2.3636     2.2320 C.3     
  15 C15           -3.4690     2.2564     0.4797 C.3     
  16 C16           -6.2059     3.5483     2.7416 C.2     
  17 C17           -5.2927     3.4507     1.6742 C.2     
  18 C18           -4.4540     2.3815     1.6134 C.2     
  19 C19           -4.5098     1.3938     2.6116 C.2     
  20 C20           -5.3906     1.5005     3.6285 C.2     
  21 N21           -6.2374     2.5671     3.7020 N.pl3   
  22 N22           -7.7072     4.0711     4.1611 N.2     
  23 N23           -7.1226     4.4417     3.0763 N.2     
  24 C24           -7.2059     2.9388     4.5825 C.2     
  25 C25           -5.2452     4.5182     0.6115 C.3     
  26 F26           -5.9060     4.0646    -0.5351 F       
  27 F27           -5.8731     5.6754     1.0846 F       
  28 F28           -3.9123     4.8056     0.2986 F       
  29 C29           -7.6230     2.1849     5.8189 C.3     
  30 C30           -6.7843     2.6539     7.0094 C.3     
  31 C31           -7.1363     2.0900     8.3875 C.3     
  32 C32           -5.8645     1.6274     7.6737 C.3     
  33 H33            0.2788     0.5328     1.4539 H       
  34 H34            2.7396     0.2954     2.1479 H       
  35 H35            4.8547     2.1886     2.8768 H       
  36 H36            5.3889     4.5672     3.1816 H       
  37 H37            3.6697     6.2836     2.7955 H       
  38 H38            1.3993     5.6259     2.1012 H       
  39 H39           -0.9496     1.4355    -0.1005 H       
  40 H40           -1.4535     2.8315    -1.0831 H       
  41 H41           -0.0142     4.3182     0.2711 H       
  42 H42            0.9439     2.9904    -0.4289 H       
  43 H43           -0.2406     2.7312     3.6720 H       
  44 H44           -0.7243     4.1628     2.7300 H       
  45 H45           -2.6124     2.5782     2.9287 H       
  46 H46           -1.6171     1.2896     2.2098 H       
  47 H47           -3.8444     2.7971    -0.3891 H       
  48 H48           -3.3398     1.2045     0.2251 H       
  49 H49           -3.8444     0.5444     2.5645 H       
  50 H50           -5.4251     0.7355     4.3900 H       
  51 H51           -8.6775     2.3731     6.0207 H       
  52 H52           -7.4678     1.1173     5.6631 H       
  53 H53           -6.4360     3.6857     6.9618 H       
  54 H54           -7.0194     2.7507     9.2465 H       
  55 H55           -7.9655     1.3849     8.4459 H       
  56 H56           -5.8570     0.6179     7.2626 H       
  57 H57           -4.9109     1.9837     8.0632 H       
@<TRIPOS>BOND
   1    1    2 1
   2    1    9 1
   3    1   12 1
   4    1   13 1
   5    2    3 2
   6    2   33 1
   7    3    4 1
   8    3   34 1
   9    4    5 ar
  10    4    9 ar
  11    5    6 ar
  12    5   35 1
  13    6    7 ar
  14    6   36 1
  15    7    8 ar
  16    7   37 1
  17    8    9 ar
  18    8   38 1
  19   10   11 1
  20   10   14 1
  21   10   15 1
  22   11   12 1
  23   11   39 1
  24   11   40 1
  25   12   41 1
  26   12   42 1
  27   13   14 1
  28   13   43 1
  29   13   44 1
  30   14   45 1
  31   14   46 1
  32   15   18 1
  33   15   47 1
  34   15   48 1
  35   16   17 1
  36   16   21 1
  37   16   23 2
  38   17   18 2
  39   17   25 1
  40   18   19 1
  41   19   20 2
  42   19   49 1
  43   20   21 1
  44   20   50 1
  45   21   24 1
  46   22   23 1
  47   22   24 2
  48   24   29 1
  49   25   26 1
  50   25   27 1
  51   25   28 1
  52   29   30 1
  53   29   51 1
  54   29   52 1
  55   30   31 1
  56   30   32 1
  57   30   53 1
  58   31   32 1
  59   31   54 1
  60   31   55 1
  61   32   56 1
  62   32   57 1

#	End of record

