#	Name: ASD01911074
#	Creating user name:	WinNT
#	Creation time:	15. 06. 2019 19:57

#	Modifying user name:	WinNT
#	Modification time:	15. 06. 2019 19:57

#	Program:	/corina/corina34_cracker 3.40 0067  02.08.2006

@<TRIPOS>MOLECULE
ASD01911074
  49   52    0    0    0
SMALL
NO_CHARGES


@<TRIPOS>ATOM
   1 N1             0.2542     1.0896    -0.0652 N.3     
   2 C2             0.0722    -0.3342     0.2473 C.3     
   3 C3            -1.4224    -0.6310     0.4100 C.3     
   4 N4            -2.1253    -0.1639    -0.7945 N.am    
   5 C5            -1.8855     1.2140    -1.2498 C.3     
   6 C6            -0.3727     1.4381    -1.3471 C.3     
   7 C7            -2.9665    -0.9770    -1.4636 C.2     
   8 C8            -3.7609    -0.4504    -2.5934 C.ar    
   9 C9            -3.9463    -1.2266    -3.7401 C.ar    
  10 C10           -4.6873    -0.7376    -4.7972 C.ar    
  11 C11           -5.2509     0.5222    -4.7299 C.ar    
  12 C12           -5.0732     1.3107    -3.5869 C.ar    
  13 C13           -4.3308     0.8187    -2.5142 C.ar    
  14 C14           -5.6569     2.6165    -3.5174 C.1     
  15 O15           -3.0719    -2.1434    -1.1379 O.2     
  16 C16           -6.1355     3.6870    -3.4604 C.1     
  17 C17           -6.7193     4.9927    -3.3909 C.ar    
  18 C18           -6.5482     5.7881    -2.2551 C.ar    
  19 N19           -7.0854     6.9887    -2.1920 N.ar    
  20 C20           -7.7985     7.4863    -3.1840 C.ar    
  21 C21           -8.0144     6.7620    -4.3431 C.ar    
  22 C22           -7.4674     5.4973    -4.4634 C.ar    
  23 C23            1.5955     1.4310    -0.0599 C.ar    
  24 Cl24          -6.1805     1.1283    -6.0649 Cl      
  25 C25            1.9944     2.6901     0.4206 C.ar    
  26 C26            3.3564     3.0125     0.4159 C.ar    
  27 C27            4.2526     2.0735    -0.0636 C.ar    
  28 C28            3.7834     0.8549    -0.5202 C.ar    
  29 N29            2.4963     0.5678    -0.5025 N.ar    
  30 C30            1.0252     3.6260     0.9056 C.1     
  31 N31            0.2563     4.3685     1.2904 N.1     
  32 H32            0.4770    -0.9393    -0.5639 H       
  33 H33            0.5934    -0.5726     1.1745 H       
  34 H34           -1.5718    -1.7043     0.5281 H       
  35 H35           -1.8067    -0.1065     1.2848 H       
  36 H36           -2.3411     1.3605    -2.2291 H       
  37 H37           -2.3144     1.9158    -0.5345 H       
  38 H38           -0.1742     2.4851    -1.5764 H       
  39 H39            0.0383     0.8083    -2.1362 H       
  40 H40           -3.5084    -2.2120    -3.7998 H       
  41 H41           -4.8267    -1.3423    -5.6811 H       
  42 H42           -4.1902     1.4222    -1.6297 H       
  43 H43           -5.9710     5.4151    -1.4220 H       
  44 H44           -8.2213     8.4756    -3.0898 H       
  45 H45           -8.6003     7.1817    -5.1475 H       
  46 H46           -7.6198     4.9104    -5.3571 H       
  47 H47            3.6994     3.9707     0.7772 H       
  48 H48            5.3104     2.2905    -0.0814 H       
  49 H49            4.4845     0.1234    -0.8940 H       
@<TRIPOS>BOND
   1    1    2 1
   2    1   23 1
   3    1    6 1
   4    2    3 1
   5    2   32 1
   6    2   33 1
   7    3    4 1
   8    3   34 1
   9    3   35 1
  10    4    5 1
  11    4    7 am
  12    5    6 1
  13    5   36 1
  14    5   37 1
  15    6   38 1
  16    6   39 1
  17    7    8 1
  18    7   15 2
  19    8    9 ar
  20    8   13 ar
  21    9   10 ar
  22    9   40 1
  23   10   11 ar
  24   10   41 1
  25   11   12 ar
  26   11   24 1
  27   12   13 ar
  28   12   14 1
  29   13   42 1
  30   14   16 3
  31   16   17 1
  32   17   18 ar
  33   17   22 ar
  34   18   19 ar
  35   18   43 1
  36   19   20 ar
  37   20   21 ar
  38   20   44 1
  39   21   22 ar
  40   21   45 1
  41   22   46 1
  42   23   25 ar
  43   23   29 ar
  44   25   26 ar
  45   25   30 1
  46   26   27 ar
  47   26   47 1
  48   27   28 ar
  49   27   48 1
  50   28   29 ar
  51   28   49 1
  52   30   31 3

#	End of record

