#	Name: ASD03430162
#	Creating user name:	WinNT
#	Creation time:	15. 06. 2019 20:40

#	Modifying user name:	WinNT
#	Modification time:	15. 06. 2019 20:40

#	Program:	/corina/corina34_cracker 3.40 0067  02.08.2006

@<TRIPOS>MOLECULE
ASD03430162
  54   59    0    0    0
SMALL
NO_CHARGES


@<TRIPOS>ATOM
   1 C1             0.0085     1.2981     0.3622 C.ar    
   2 C2             0.0164    -0.0862     0.2877 C.ar    
   3 C3             1.2117    -0.7731     0.2615 C.ar    
   4 C4             2.4228    -0.0902     0.3201 C.ar    
   5 C5             2.4114     1.2991     0.3916 C.ar    
   6 C6             1.2123     1.9914     0.4136 C.ar    
   7 O7             3.4782    -0.9540     0.3095 O.3     
   8 C8             1.5489    -2.2368     0.1629 C.3     
   9 C9             3.0420    -2.2315    -0.1929 C.3     
  10 C10            0.3888    -3.9898     1.1128 C.ar    
  11 C11            1.2804    -2.9717     1.4426 C.ar    
  12 C12            0.7295    -2.9410    -0.8801 C.2     
  13 N13            0.0872    -3.9449    -0.2505 N.am    
  14 O14            0.6590    -2.6608    -2.0580 O.2     
  15 C15            1.7214    -2.8190     2.7377 C.ar    
  16 C16            1.2799    -3.6808     3.7264 C.ar    
  17 C17            0.3951    -4.6952     3.4104 C.ar    
  18 C18           -0.0496    -4.8525     2.1138 C.ar    
  19 C19           -0.8209    -4.8806    -0.9183 C.3     
  20 O20           -1.1807     1.9611     0.3784 O.3     
  21 C21           -1.1528     3.3218     0.8229 C.3     
  22 C22            0.0199     4.0292     0.1304 C.3     
  23 O23            1.2281     3.3508     0.4894 O.3     
  24 C24           -2.2387    -4.3884    -0.7820 C.ar    
  25 C25           -3.2773    -5.0941    -1.3903 C.ar    
  26 C26           -2.9987    -6.3208    -2.1669 C.2     
  27 N27           -4.0179    -7.0595    -2.6486 N.am    
  28 C28           -3.7419    -8.2751    -3.4182 C.3     
  29 N29           -2.4874    -3.2989    -0.0853 N.ar    
  30 C30           -3.7118    -2.8301     0.0617 C.ar    
  31 C31           -4.7951    -3.4690    -0.5148 C.ar    
  32 C32           -4.5880    -4.6211    -1.2524 C.ar    
  33 O33           -1.8504    -6.6632    -2.3711 O.2     
  34 H34           -0.9169    -0.6285     0.2504 H       
  35 H35            3.3444     1.8417     0.4304 H       
  36 H36            3.1828    -2.2916    -1.2721 H       
  37 H37            3.5631    -3.0446     0.3124 H       
  38 H38            2.4128    -2.0262     2.9823 H       
  39 H39            1.6259    -3.5615     4.7425 H       
  40 H40            0.0508    -5.3678     4.1820 H       
  41 H41           -0.7405    -5.6475     1.8746 H       
  42 H42           -0.5600    -4.9490    -1.9744 H       
  43 H43           -0.7320    -5.8645    -0.4577 H       
  44 H44           -2.0881     3.8146     0.5572 H       
  45 H45           -1.0144     3.3528     1.9036 H       
  46 H46           -0.1148     3.9917    -0.9506 H       
  47 H47            0.0692     5.0672     0.4594 H       
  48 H48           -4.9343    -6.7863    -2.4856 H       
  49 H49           -4.6826    -8.7347    -3.7214 H       
  50 H50           -3.1600    -8.0201    -4.3039 H       
  51 H51           -3.1776    -8.9750    -2.8019 H       
  52 H52           -3.8711    -1.9332     0.6419 H       
  53 H53           -5.7925    -3.0749    -0.3869 H       
  54 H54           -5.4155    -5.1400    -1.7133 H       
@<TRIPOS>BOND
   1    1    2 ar
   2    1    6 ar
   3    1   20 1
   4    2    3 ar
   5    2   34 1
   6    3    4 ar
   7    3    8 1
   8    4    5 ar
   9    4    7 1
  10    5    6 ar
  11    5   35 1
  12    6   23 1
  13    7    9 1
  14    8    9 1
  15    8   11 1
  16    8   12 1
  17    9   36 1
  18    9   37 1
  19   10   11 ar
  20   10   13 1
  21   10   18 ar
  22   11   15 ar
  23   12   13 am
  24   12   14 2
  25   13   19 1
  26   15   16 ar
  27   15   38 1
  28   16   17 ar
  29   16   39 1
  30   17   18 ar
  31   17   40 1
  32   18   41 1
  33   19   24 1
  34   19   42 1
  35   19   43 1
  36   20   21 1
  37   21   22 1
  38   21   44 1
  39   21   45 1
  40   22   23 1
  41   22   46 1
  42   22   47 1
  43   24   25 ar
  44   24   29 ar
  45   25   26 1
  46   25   32 ar
  47   26   27 am
  48   26   33 2
  49   27   28 1
  50   27   48 1
  51   28   49 1
  52   28   50 1
  53   28   51 1
  54   29   30 ar
  55   30   31 ar
  56   30   52 1
  57   31   32 ar
  58   31   53 1
  59   32   54 1

#	End of record

