#	Name: ASD00842393
#	Creating user name:	WinNT
#	Creation time:	15. 06. 2019 18:44

#	Modifying user name:	WinNT
#	Modification time:	15. 06. 2019 18:44

#	Program:	/corina/corina34_cracker 3.40 0067  02.08.2006

@<TRIPOS>MOLECULE
ASD00842393
  90   95    0    0    0
SMALL
NO_CHARGES


@<TRIPOS>ATOM
   1 C1            -0.0167     1.3829     0.0096 C.ar    
   2 C2             0.0021    -0.0041     0.0020 C.ar    
   3 C3             1.2143    -0.6791    -0.0132 C.ar    
   4 C4             2.3989     0.0312    -0.0207 C.ar    
   5 C5             2.3774     1.4139    -0.0126 C.ar    
   6 C6             1.1710     2.0888     0.0021 C.ar    
   7 C7             1.2384    -2.1858    -0.0210 C.3     
   8 C8             0.4953    -2.7219    -1.2261 C.2     
   9 O9             2.6067    -2.6715    -0.0096 O.3     
  10 C10            3.3981    -2.2932    -1.0311 C.2     
  11 N11            4.6791    -2.7091    -1.0809 N.am    
  12 O12            2.9573    -1.5769    -1.9081 O.2     
  13 C13            5.5549    -2.3047    -2.1891 C.3     
  14 C14            6.1664    -3.5607    -2.8178 C.3     
  15 C15            6.8654    -4.3815    -1.7316 C.3     
  16 C16            5.8417    -4.8169    -0.6807 C.3     
  17 C17            5.2280    -3.5705    -0.0248 C.3     
  18 C18            7.5071    -5.6193    -2.3616 C.3     
  19 C19            8.5330    -5.1853    -3.4122 C.3     
  20 C20            9.2147    -6.4252    -3.9952 C.3     
  21 N21            9.8764    -7.1732    -2.9187 N.3     
  22 C22            8.9046    -7.6411    -1.9221 C.3     
  23 C23            8.2137    -6.4375    -1.2772 C.3     
  24 C24           10.6571    -8.2940    -3.4593 C.3     
  25 O25            0.7737    -2.5253    -2.3901 O.2     
  26 N26           -0.5308    -3.4561    -0.7640 N.am    
  27 C27            0.4691    -2.7339     1.1590 C.ar    
  28 C28           -0.5747    -3.4836     0.6309 C.ar    
  29 C29            0.6332    -2.6128     2.5205 C.ar    
  30 C30           -0.2492    -3.2434     3.3816 C.ar    
  31 C31           -1.2945    -3.9941     2.8677 C.ar    
  32 C32           -1.4596    -4.1159     1.5012 C.ar    
  33 Cl33          -0.0462    -3.0943     5.0993 Cl      
  34 F34           -2.1562    -4.6098     3.7065 F       
  35 C35           -0.9806    -5.8529    -2.0396 C.ar    
  36 C36            0.1979    -6.0114    -2.7537 C.ar    
  37 C37           -1.6511    -6.9619    -1.5605 C.ar    
  38 C38           -1.1480    -8.2286    -1.7919 C.ar    
  39 C39            0.0267    -8.3893    -2.5035 C.ar    
  40 C40            0.7005    -7.2839    -2.9850 C.ar    
  41 H41            0.4177    -9.3799    -2.6830 H       
  42 O42            0.8591    -4.9222    -3.2264 O.3     
  43 C43            2.0661    -5.1607    -3.9531 C.3     
  44 C44            2.6636    -3.8256    -4.4018 C.3     
  45 O45           -1.1648    -0.7006     0.0099 O.3     
  46 C46           -3.5740    -0.8895     0.0328 C.3     
  47 C47           -2.3744     0.0601     0.0260 C.3     
  48 S48           -1.6183    -4.2384    -1.7375 S.o2    
  49 O49           -2.7976    -4.4110    -0.9639 O.2     
  50 O50           -1.6001    -3.5597    -2.9858 O.2     
  51 H51           -0.9590     1.9106     0.0170 H       
  52 H52            3.3426    -0.4937    -0.0325 H       
  53 H53            3.3047     1.9675    -0.0178 H       
  54 H54            1.1569     3.1687     0.0084 H       
  55 H55            4.9725    -1.7678    -2.9379 H       
  56 H56            6.3494    -1.6615    -1.8109 H       
  57 H57            5.3785    -4.1590    -3.2754 H       
  58 H58            6.8917    -3.2708    -3.5781 H       
  59 H59            7.6367    -3.7744    -1.2576 H       
  60 H60            5.0568    -5.4033    -1.1584 H       
  61 H61            6.3358    -5.4210     0.0802 H       
  62 H62            5.9974    -3.0330     0.5295 H       
  63 H63            4.4287    -3.8703     0.6529 H       
  64 H64            6.7366    -6.2282    -2.8346 H       
  65 H65            8.0287    -4.6386    -4.2091 H       
  66 H66            9.2811    -4.5435    -2.9469 H       
  67 H67            8.4678    -7.0597    -4.4724 H       
  68 H68            9.9559    -6.1188    -4.7334 H       
  69 H69            8.1592    -8.2699    -2.4090 H       
  70 H70            9.4207    -8.2179    -1.1546 H       
  71 H71            8.9568    -5.8154    -0.7783 H       
  72 H72            7.4813    -6.7855    -0.5488 H       
  73 H73           11.4189    -7.9118    -4.1388 H       
  74 H74           11.1366    -8.8310    -2.6409 H       
  75 H75            9.9951    -8.9709    -3.9994 H       
  76 H76            1.4495    -2.0270     2.9166 H       
  77 H77           -2.2766    -4.7022     1.1071 H       
  78 H78           -2.5688    -6.8391    -1.0044 H       
  79 H79           -1.6732    -9.0942    -1.4159 H       
  80 H80            1.6176    -7.4099    -3.5414 H       
  81 H81            2.7788    -5.6809    -3.3131 H       
  82 H82            1.8485    -5.7737    -4.8278 H       
  83 H83            1.9510    -3.3054    -5.0418 H       
  84 H84            2.8812    -3.2127    -3.5272 H       
  85 H85            3.5843    -4.0076    -4.9561 H       
  86 H86           -4.4966    -0.3093     0.0451 H       
  87 H87           -3.5489    -1.5131    -0.8609 H       
  88 H88           -3.5312    -1.5227     0.9190 H       
  89 H89           -2.3995     0.6837     0.9196 H       
  90 H90           -2.4172     0.6932    -0.8603 H       
@<TRIPOS>BOND
   1    1    2 ar
   2    1    6 ar
   3    1   51 1
   4    2    3 ar
   5    2   45 1
   6    3    4 ar
   7    3    7 1
   8    4    5 ar
   9    4   52 1
  10    5    6 ar
  11    5   53 1
  12    6   54 1
  13    7    8 1
  14    7    9 1
  15    7   27 1
  16    8   25 2
  17    8   26 am
  18    9   10 1
  19   10   11 am
  20   10   12 2
  21   11   13 1
  22   11   17 1
  23   13   14 1
  24   13   55 1
  25   13   56 1
  26   14   15 1
  27   14   57 1
  28   14   58 1
  29   15   16 1
  30   15   18 1
  31   15   59 1
  32   16   17 1
  33   16   60 1
  34   16   61 1
  35   17   62 1
  36   17   63 1
  37   18   19 1
  38   18   23 1
  39   18   64 1
  40   19   20 1
  41   19   65 1
  42   19   66 1
  43   20   21 1
  44   20   67 1
  45   20   68 1
  46   21   22 1
  47   21   24 1
  48   22   23 1
  49   22   69 1
  50   22   70 1
  51   23   71 1
  52   23   72 1
  53   24   73 1
  54   24   74 1
  55   24   75 1
  56   26   48 am
  57   26   28 1
  58   27   28 ar
  59   27   29 ar
  60   28   32 ar
  61   29   30 ar
  62   29   76 1
  63   30   31 ar
  64   30   33 1
  65   31   32 ar
  66   31   34 1
  67   32   77 1
  68   35   36 ar
  69   35   37 ar
  70   35   48 1
  71   36   42 1
  72   36   40 ar
  73   37   38 ar
  74   37   78 1
  75   38   39 ar
  76   38   79 1
  77   39   40 ar
  78   39   41 1
  79   40   80 1
  80   42   43 1
  81   43   44 1
  82   43   81 1
  83   43   82 1
  84   44   83 1
  85   44   84 1
  86   44   85 1
  87   45   47 1
  88   46   47 1
  89   46   86 1
  90   46   87 1
  91   46   88 1
  92   47   89 1
  93   47   90 1
  94   48   49 2
  95   48   50 2

#	End of record

