#	Name: ASD01917692
#	Creating user name:	WinNT
#	Creation time:	15. 06. 2019 20:09

#	Modifying user name:	WinNT
#	Modification time:	15. 06. 2019 20:09

#	Program:	/corina/corina34_cracker 3.40 0067  02.08.2006

@<TRIPOS>MOLECULE
ASD01917692
  45   47    0    0    0
SMALL
NO_CHARGES


@<TRIPOS>ATOM
   1 C1            -0.0158     1.3144     0.0093 C.ar    
   2 N2             0.0021    -0.0041     0.0020 N.ar    
   3 C3            -1.1213    -0.6997     0.0090 C.ar    
   4 C4            -2.3427    -0.0133     0.0244 C.ar    
   5 C5            -2.3121     1.3874     0.0316 C.ar    
   6 N6            -1.1416     2.0006     0.0291 N.ar    
   7 C7            -3.5864    -0.7230     0.0262 C.1     
   8 C8            -4.6061    -1.3048     0.0277 C.1     
   9 C9            -5.8499    -2.0144     0.0296 C.ar    
  10 C10           -5.8604    -3.4119     0.0223 C.ar    
  11 C11           -7.0611    -4.0894     0.0246 C.ar    
  12 C12           -8.2563    -3.3874     0.0337 C.ar    
  13 C13           -8.2525    -2.0013     0.0405 C.ar    
  14 C14           -7.0582    -1.3124     0.0446 C.ar    
  15 C15            1.2931     2.0613     0.0008 C.3     
  16 C16            1.3637     2.9302    -1.2220 C.2     
  17 N17            1.8250     4.1814    -1.2104 N.am    
  18 C18            2.2723     4.8764    -0.0099 C.3     
  19 C19            2.5869     3.8752     1.1023 C.3     
  20 C20            1.3936     2.9253     1.2602 C.3     
  21 C21            3.5302     5.6852    -0.3329 C.3     
  22 C22            1.1718     5.8284     0.4630 C.3     
  23 C23            1.8864     4.9023    -2.4843 C.3     
  24 O24            0.9810     2.4693    -2.2766 O.2     
  25 F25           -9.4297    -4.0569     0.0355 F       
  26 H26           -1.0984    -1.7794     0.0026 H       
  27 H27           -3.2299     1.9565     0.0387 H       
  28 H28           -4.9298    -3.9600     0.0145 H       
  29 H29           -7.0705    -5.1694     0.0190 H       
  30 H30           -9.1869    -1.4599     0.0472 H       
  31 H31           -7.0565    -0.2324     0.0499 H       
  32 H32            2.1170     1.3478    -0.0140 H       
  33 H33            3.4767     3.3035     0.8388 H       
  34 H34            2.7560     4.4088     2.0376 H       
  35 H35            0.4778     3.5037     1.3823 H       
  36 H36            1.5446     2.2881     2.1316 H       
  37 H37            3.3043     6.4125    -1.1128 H       
  38 H38            3.8672     6.2063     0.5632 H       
  39 H39            4.3153     5.0131    -0.6793 H       
  40 H40            0.2697     5.2587     0.6860 H       
  41 H41            1.5035     6.3497     1.3609 H       
  42 H42            0.9582     6.5549    -0.3210 H       
  43 H43            1.5221     4.2579    -3.2844 H       
  44 H44            1.2653     5.7961    -2.4263 H       
  45 H45            2.9177     5.1892    -2.6900 H       
@<TRIPOS>BOND
   1    1    2 ar
   2    1   15 1
   3    1    6 ar
   4    2    3 ar
   5    3    4 ar
   6    3   26 1
   7    4    5 ar
   8    4    7 1
   9    5    6 ar
  10    5   27 1
  11    7    8 3
  12    8    9 1
  13    9   10 ar
  14    9   14 ar
  15   10   11 ar
  16   10   28 1
  17   11   12 ar
  18   11   29 1
  19   12   13 ar
  20   12   25 1
  21   13   14 ar
  22   13   30 1
  23   14   31 1
  24   15   16 1
  25   15   20 1
  26   15   32 1
  27   16   17 am
  28   16   24 2
  29   17   18 1
  30   17   23 1
  31   18   19 1
  32   18   21 1
  33   18   22 1
  34   19   20 1
  35   19   33 1
  36   19   34 1
  37   20   35 1
  38   20   36 1
  39   21   37 1
  40   21   38 1
  41   21   39 1
  42   22   40 1
  43   22   41 1
  44   22   42 1
  45   23   43 1
  46   23   44 1
  47   23   45 1

#	End of record

