#	Name: ASD01410947
#	Creating user name:	WinNT
#	Creation time:	15. 06. 2019 19:19

#	Modifying user name:	WinNT
#	Modification time:	15. 06. 2019 19:19

#	Program:	/corina/corina34_cracker 3.40 0067  02.08.2006

@<TRIPOS>MOLECULE
ASD01410947
  41   43    0    0    0
SMALL
NO_CHARGES


@<TRIPOS>ATOM
   1 C1            -0.0167     1.3787     0.0096 C.ar    
   2 C2             0.0021    -0.0041     0.0020 C.ar    
   3 C3             1.2108    -0.6792    -0.0131 C.ar    
   4 C4             2.3993     0.0309    -0.0207 C.ar    
   5 C5             2.3788     1.4130    -0.0126 C.ar    
   6 C6             1.1722     2.0869     0.0021 C.ar    
   7 Cl7           -1.5317     2.2262     0.0214 Cl      
   8 P8             3.9835    -0.8525    -0.0406 P.3     
   9 N9             4.4462    -1.1104    -1.5927 N.pl3   
  10 O10            5.0096    -0.0411     0.6517 O.2     
  11 C11            5.6391    -1.7756    -1.8620 C.2     
  12 C12            6.0827    -2.0229    -3.1407 C.2     
  13 S13            7.6176    -2.8781    -3.0774 S.3     
  14 C14            7.5969    -2.8664    -1.3198 C.2     
  15 C15            6.4761    -2.2357    -0.8721 C.2     
  16 C16            5.4084    -1.6474    -4.3229 C.2     
  17 O17            4.3465    -1.0557    -4.2563 O.2     
  18 O18            5.9413    -1.9445    -5.5274 O.3     
  19 C19            8.6442    -3.4498    -0.4554 C.ar    
  20 C20            9.7578    -4.0698    -1.0250 C.ar    
  21 C21           10.7318    -4.6124    -0.2132 C.ar    
  22 C22           10.6065    -4.5436     1.1643 C.ar    
  23 C23            9.5039    -3.9303     1.7351 C.ar    
  24 C24            8.5266    -3.3781     0.9337 C.ar    
  25 O25            3.8193    -2.2661     0.7124 O.3     
  26 C26            3.4245    -2.3775     2.0813 C.3     
  27 Cl27          11.8364    -5.2295     2.1796 Cl      
  28 F28            1.2305    -2.0300    -0.0201 F       
  29 H29           -0.9256    -0.5571     0.0083 H       
  30 H30            3.3061     1.9666    -0.0181 H       
  31 H31            1.1573     3.1667     0.0080 H       
  32 H32            3.8887    -0.7995    -2.3230 H       
  33 H33            6.2594    -2.1096     0.1784 H       
  34 H34            5.4081    -1.6475    -6.2775 H       
  35 H35            9.8562    -4.1246    -2.0991 H       
  36 H36           11.5938    -5.0923    -0.6526 H       
  37 H37            9.4115    -3.8800     2.8100 H       
  38 H38            7.6697    -2.8955     1.3800 H       
  39 H39            2.4406    -1.9273     2.2135 H       
  40 H40            3.3834    -3.4296     2.3631 H       
  41 H41            4.1482    -1.8605     2.7114 H       
@<TRIPOS>BOND
   1    1    2 ar
   2    1    6 ar
   3    1    7 1
   4    2    3 ar
   5    2   29 1
   6    3    4 ar
   7    3   28 1
   8    4    5 ar
   9    4    8 1
  10    5    6 ar
  11    5   30 1
  12    6   31 1
  13    8    9 1
  14    8   10 2
  15    8   25 1
  16    9   11 1
  17    9   32 1
  18   11   12 2
  19   11   15 1
  20   12   13 1
  21   12   16 1
  22   13   14 1
  23   14   15 2
  24   14   19 1
  25   15   33 1
  26   16   17 2
  27   16   18 1
  28   18   34 1
  29   19   20 ar
  30   19   24 ar
  31   20   21 ar
  32   20   35 1
  33   21   22 ar
  34   21   36 1
  35   22   23 ar
  36   22   27 1
  37   23   24 ar
  38   23   37 1
  39   24   38 1
  40   25   26 1
  41   26   39 1
  42   26   40 1
  43   26   41 1

#	End of record

