#	Name: ASD00238002
#	Creating user name:	WinNT
#	Creation time:	15. 06. 2019 18:33

#	Modifying user name:	WinNT
#	Modification time:	15. 06. 2019 18:33

#	Program:	/corina/corina34_cracker 3.40 0067  02.08.2006

@<TRIPOS>MOLECULE
ASD00238002
  28   27    0    0    0
SMALL
NO_CHARGES


@<TRIPOS>ATOM
   1 C1            -0.0187     1.5258     0.0104 C.3     
   2 C2             0.0021    -0.0041     0.0020 C.3     
   3 C3            -1.4333    -0.5336     0.0129 C.3     
   4 C4            -1.4129    -2.0405     0.0046 C.2     
   5 C5            -2.7076    -2.8117     0.0128 C.3     
   6 N6             1.3595     2.0342     0.0000 N.4     
   7 O7            -0.3590    -2.6300    -0.0086 O.2     
   8 C8             2.0471     1.5605    -1.2086 C.3     
   9 C9             1.3396     3.5031     0.0081 C.3     
  10 C10            2.0700     1.5476     1.1901 C.3     
  11 H11           -0.5459     1.8868    -0.8726 H       
  12 H12           -0.5289     1.8773     0.9072 H       
  13 H13            0.5123    -0.3556    -0.8948 H       
  14 H14            0.5293    -0.3651     0.8851 H       
  15 H15           -1.9435    -0.1821     0.9097 H       
  16 H16           -1.9605    -0.1726    -0.8702 H       
  17 H17           -3.5456    -2.1147     0.0246 H       
  18 H18           -2.7653    -3.4343    -0.8800 H       
  19 H19           -2.7483    -3.4438     0.8998 H       
  20 H20            1.5199     1.9216    -2.0917 H       
  21 H21            3.0697     1.9378    -1.2163 H       
  22 H22            2.0619     0.4706    -1.2146 H       
  23 H23            0.8294     3.8546     0.9049 H       
  24 H24            2.3622     3.8804     0.0003 H       
  25 H25            0.8124     3.8642    -0.8750 H       
  26 H26            2.0848     0.4577     1.1841 H       
  27 H27            3.0926     1.9249     1.1824 H       
  28 H28            1.5598     1.8991     2.0869 H       
@<TRIPOS>BOND
   1    1    2 1
   2    1    6 1
   3    1   11 1
   4    1   12 1
   5    2    3 1
   6    2   13 1
   7    2   14 1
   8    3    4 1
   9    3   15 1
  10    3   16 1
  11    4    5 1
  12    4    7 2
  13    5   17 1
  14    5   18 1
  15    5   19 1
  16    6    8 1
  17    6    9 1
  18    6   10 1
  19    8   20 1
  20    8   21 1
  21    8   22 1
  22    9   23 1
  23    9   24 1
  24    9   25 1
  25   10   26 1
  26   10   27 1
  27   10   28 1

#	End of record

