#	Name: ASD06170087
#	Creating user name:	WinNT
#	Creation time:	15. 06. 2019 21:05

#	Modifying user name:	WinNT
#	Modification time:	15. 06. 2019 21:05

#	Program:	/corina/corina34_cracker 3.40 0067  02.08.2006

@<TRIPOS>MOLECULE
ASD06170087
  59   63    0    0    0
SMALL
NO_CHARGES


@<TRIPOS>ATOM
   1 N1             0.0710    -2.0896    -0.0088 N.pl3   
   2 N2             0.1957    -0.6981     0.0362 N.am    
   3 C3             1.5022    -0.3774     0.1220 C.2     
   4 C4             2.2532    -1.6391     0.1323 C.2     
   5 C5             1.3069    -2.6630     0.0488 C.2     
   6 C6             3.7074    -1.7935     0.2140 C.2     
   7 O7             4.1967    -2.9032     0.3173 O.2     
   8 N8             4.5036    -0.7068     0.1749 N.am    
   9 C9             1.5936    -4.1090     0.0276 C.ar    
  10 C10            2.5491    -4.6228    -0.8539 C.ar    
  11 C11            2.8122    -5.9764    -0.8676 C.ar    
  12 C12            2.1326    -6.8256    -0.0118 C.ar    
  13 C13            1.1850    -6.3244     0.8635 C.ar    
  14 C14            0.9155    -4.9722     0.8930 C.ar    
  15 O15            1.9703     0.7447     0.1796 O.2     
  16 C16           -0.9141     0.2573    -0.0040 C.3     
  17 C17           -1.1953    -2.8209    -0.0978 C.3     
  18 C18            5.8799    -0.8438     0.3551 C.ar    
  19 C19            6.6810     0.2907     0.4220 C.ar    
  20 C20            8.0445     0.1434     0.6009 C.ar    
  21 C21            8.5644    -1.1443     0.7077 C.ar    
  22 C22            7.7052    -2.2287     0.6318 C.ar    
  23 N23            6.4082    -2.0519     0.4659 N.ar    
  24 O24            9.8990    -1.3351     0.8838 O.3     
  25 N25           11.4547    -0.6305     4.6378 N.ar    
  26 C26           10.1915    -0.3762     4.3884 C.ar    
  27 C27            9.6325    -0.6012     3.1370 C.ar    
  28 C28           10.4176    -1.1060     2.1151 C.ar    
  29 C29           11.7765    -1.3757     2.3948 C.ar    
  30 C30           12.6338    -1.8886     1.4104 C.ar    
  31 C31           13.9375    -2.1383     1.7108 C.ar    
  32 C32           14.4362    -1.8895     2.9927 C.ar    
  33 C33           13.6200    -1.3868     3.9806 C.ar    
  34 C34           12.2711    -1.1199     3.6971 C.ar    
  35 O35           15.7414    -2.1473     3.2669 O.3     
  36 C36           16.5376    -2.6684     2.2009 C.3     
  37 H37            4.1196     0.1706     0.0214 H       
  38 H38            3.0796    -3.9614    -1.5228 H       
  39 H39            3.5501    -6.3748    -1.5481 H       
  40 H40            2.3427    -7.8849    -0.0272 H       
  41 H41            0.6581    -6.9933     1.5279 H       
  42 H42            0.1792    -4.5818     1.5799 H       
  43 H43           -1.2503     0.4666     1.0115 H       
  44 H44           -0.5804     1.1823    -0.4742 H       
  45 H45           -1.7374    -0.1661    -0.5793 H       
  46 H46           -2.0231    -2.1123    -0.1239 H       
  47 H47           -1.2039    -3.4233    -1.0062 H       
  48 H48           -1.3010    -3.4713     0.7705 H       
  49 H49            6.2440     1.2745     0.3350 H       
  50 H50            8.6910     1.0067     0.6562 H       
  51 H51            8.1011    -3.2302     0.7137 H       
  52 H52            9.5693     0.0179     5.1783 H       
  53 H53            8.5895    -0.3825     2.9618 H       
  54 H54           12.2602    -2.0853     0.4164 H       
  55 H55           14.5942    -2.5336     0.9500 H       
  56 H56           14.0151    -1.1980     4.9678 H       
  57 H57           16.1169    -3.6153     1.8625 H       
  58 H58           16.5468    -1.9586     1.3737 H       
  59 H59           17.5565    -2.8289     2.5533 H       
@<TRIPOS>BOND
   1    1    2 1
   2    1    5 1
   3    1   17 1
   4    2    3 am
   5    2   16 1
   6    3    4 1
   7    3   15 2
   8    4    5 2
   9    4    6 1
  10    5    9 1
  11    6    7 2
  12    6    8 am
  13    8   18 1
  14    8   37 1
  15    9   10 ar
  16    9   14 ar
  17   10   11 ar
  18   10   38 1
  19   11   12 ar
  20   11   39 1
  21   12   13 ar
  22   12   40 1
  23   13   14 ar
  24   13   41 1
  25   14   42 1
  26   16   43 1
  27   16   44 1
  28   16   45 1
  29   17   46 1
  30   17   47 1
  31   17   48 1
  32   18   19 ar
  33   18   23 ar
  34   19   20 ar
  35   19   49 1
  36   20   21 ar
  37   20   50 1
  38   21   22 ar
  39   21   24 1
  40   22   23 ar
  41   22   51 1
  42   24   28 1
  43   25   26 ar
  44   25   34 ar
  45   26   27 ar
  46   26   52 1
  47   27   28 ar
  48   27   53 1
  49   28   29 ar
  50   29   30 ar
  51   29   34 ar
  52   30   31 ar
  53   30   54 1
  54   31   32 ar
  55   31   55 1
  56   32   33 ar
  57   32   35 1
  58   33   34 ar
  59   33   56 1
  60   35   36 1
  61   36   57 1
  62   36   58 1
  63   36   59 1

#	End of record

