#	Name: ASD06600030
#	Creating user name:	WinNT
#	Creation time:	15. 06. 2019 21:07

#	Modifying user name:	WinNT
#	Modification time:	15. 06. 2019 21:07

#	Program:	/corina/corina34_cracker 3.40 0067  02.08.2006

@<TRIPOS>MOLECULE
ASD06600030
 284  286    0    0    0
SMALL
NO_CHARGES


@<TRIPOS>ATOM
   1 C1            -0.6506    -1.6225     1.6362 C.2     
   2 O2            -0.6814    -2.8086     1.3848 O.2     
   3 N3             1.7580    -1.9061     1.7209 N.am    
   4 C4             0.6710    -0.9339     1.8603 C.3     
   5 C5             0.8474     0.1801     0.8265 C.3     
   6 C6             2.1094     0.9476     1.1254 C.2     
   7 C7             3.1260     1.1634     0.2689 C.2     
   8 N8             4.0623     1.8998     0.9432 N.pl3   
   9 C9             3.5850     2.1085     2.1891 C.2     
  10 N10            2.4144     1.5404     2.2892 N.2     
  11 C11           -4.0987    -0.5782     1.0173 C.2     
  12 O12           -3.7814     0.5847     0.8835 O.2     
  13 N13           -1.7979    -0.9192     1.7097 N.am    
  14 C14           -3.0823    -1.5874     1.4859 C.3     
  15 C15           -3.5605    -2.2240     2.7924 C.3     
  16 C16           -7.7329    -0.4703     0.6380 C.2     
  17 O17           -7.8799    -1.5300     1.2092 O.2     
  18 N18           -5.3602    -0.9679     0.7470 N.am    
  19 C19           -6.3483     0.0132     0.2915 C.3     
  20 C20           -6.2332     0.1869    -1.2243 C.3     
  21 C21           -4.8275     0.6777    -1.5761 C.3     
  22 C22           -6.4921    -1.1548    -1.9125 C.3     
  23 C23          -11.1529     0.4239    -0.2934 C.2     
  24 O24          -10.7774     1.1828    -1.1618 O.2     
  25 N25           -8.8079     0.2750     0.3132 N.am    
  26 C26          -10.1539    -0.1950     0.6501 C.3     
  27 C27          -10.4907     0.2097     2.0866 C.3     
  28 C28           -9.5684    -0.5062     3.0395 C.2     
  29 C29           -8.7847     0.0740     3.9683 C.2     
  30 N30           -8.1175    -0.9346     4.6096 N.pl3   
  31 C31           -8.5170    -2.0968     4.0499 C.2     
  32 N32           -9.3885    -1.8332     3.1150 N.2     
  33 C33          -14.7885     0.7802    -0.4292 C.2     
  34 O34          -14.9284     0.3517     0.6968 O.2     
  35 N35          -12.4635     0.1340    -0.1723 N.am    
  36 C36          -13.4346     0.7356    -1.0895 C.3     
  37 C37          -13.5174    -0.1031    -2.3665 C.3     
  38 C38          -18.2340     1.3587    -1.5048 C.2     
  39 O39          -17.9300     1.3381    -2.6787 O.2     
  40 N40          -15.8438     1.2963    -1.0898 N.am    
  41 C41          -17.1599     1.3397    -0.4478 C.3     
  42 C42          -17.2671     2.6014     0.4110 C.3     
  43 C43          -21.8203     2.0584    -1.6137 C.2     
  44 O44          -21.8333     2.4604    -0.4695 O.2     
  45 N45          -19.5323     1.3987    -1.1455 N.am    
  46 C46          -20.5764     1.4172    -2.1730 C.3     
  47 C47          -20.8919    -0.0161    -2.6054 C.3     
  48 C48          -19.6646    -0.6252    -3.2864 C.3     
  49 C49          -19.9801    -2.0585    -3.7188 C.3     
  50 N50          -18.8049    -2.6417    -4.3709 N.pl3   
  51 C51          -18.8515    -3.9308    -4.8464 C.2     
  52 N52          -19.9413    -4.6341    -4.7171 N.2     
  53 N53          -17.7487    -4.4781    -5.4584 N.pl3   
  54 C54          -25.3326     2.3087    -2.5954 C.2     
  55 O55          -25.1952     1.5104    -3.4980 O.2     
  56 N56          -22.9182     2.1852    -2.3851 N.am    
  57 C57          -24.1273     2.8086    -1.8414 C.3     
  58 C58          -24.0279     4.3282    -1.9884 C.3     
  59 C59          -22.8965     4.8424    -1.1360 C.2     
  60 C60          -21.8623     5.5924    -1.5621 C.2     
  61 N61          -21.0737     5.8363    -0.4702 N.pl3   
  62 C62          -21.6538     5.2264     0.5858 C.2     
  63 N63          -22.7462     4.6383     0.1811 N.2     
  64 C64          -28.8428     3.2805    -2.9073 C.2     
  65 O65          -28.6705     4.3102    -2.2902 O.2     
  66 N66          -26.5634     2.7489    -2.2666 N.am    
  67 C67          -27.7351     2.2629    -2.9996 C.3     
  68 C68          -28.2053     0.9405    -2.3905 C.3     
  69 C69          -27.1284    -0.1268    -2.5954 C.3     
  70 C70          -27.5987    -1.4493    -1.9863 C.3     
  71 N71          -26.5676    -2.4713    -2.1825 N.pl3   
  72 C72          -26.7682    -3.7487    -1.7154 C.2     
  73 N73          -25.8507    -4.6580    -1.8900 N.2     
  74 N74          -27.9364    -4.0670    -1.0642 N.pl3   
  75 C75          -32.4311     3.3488    -3.6023 C.2     
  76 O76          -32.4746     2.1511    -3.7880 O.2     
  77 N77          -30.0250     3.0463    -3.5107 N.am    
  78 C78          -31.1019     4.0355    -3.4211 C.3     
  79 C79          -30.9188     5.0892    -4.5152 C.3     
  80 C80          -29.6287     5.8710    -4.2596 C.3     
  81 C81          -29.4457     6.9247    -5.3537 C.3     
  82 N82          -28.2104     7.6733    -5.1089 N.pl3   
  83 C83          -27.8346     8.6792    -5.9674 C.2     
  84 N84          -28.5774     8.9669    -6.9992 N.2     
  85 N85          -26.6754     9.3818    -5.7378 N.pl3   
  86 C86          -35.8202     4.4384    -4.3907 C.2     
  87 O87          -35.6808     5.6124    -4.1201 O.2     
  88 N88          -33.5715     4.0658    -3.5579 N.am    
  89 C89          -34.8548     3.4191    -3.8429 C.3     
  90 C90          -35.4217     2.8208    -2.5539 C.3     
  91 C91          -36.6833     2.0175    -2.8764 C.3     
  92 C92          -36.3085     0.7944    -3.7158 C.3     
  93 C93          -37.3430     1.5595    -1.5741 C.3     
  94 C94          -39.1462     4.3168    -5.8814 C.2     
  95 O95          -39.1910     3.1049    -5.8950 O.2     
  96 N96          -36.8385     4.0453    -5.1813 N.am    
  97 C97          -37.8374     5.0195    -5.6278 C.3     
  98 C98          -37.3580     5.6863    -6.9188 C.3     
  99 C99          -38.3193     6.8148    -7.2973 C.3     
 100 C100         -38.2544     7.9168    -6.2381 C.3     
 101 C101         -37.9197     7.3904    -8.6574 C.3     
 102 C102         -42.4226     5.2905    -7.1775 C.2     
 103 O103         -42.0494     6.4159    -7.4324 O.2     
 104 N104         -40.2668     5.0351    -6.0929 N.am    
 105 C105         -41.5242     4.3541    -6.4114 C.3     
 106 C106         -42.2168     3.9295    -5.1149 C.3     
 107 O107         -42.5935     5.0915    -4.3735 O.3     
 108 C108         -45.2847     6.6485    -7.3565 C.2     
 109 O109         -45.1210     6.5153    -6.1668 O.2     
 110 N110         -43.6409     4.8773    -7.5794 N.am    
 111 C111         -44.5143     5.7876    -8.3242 C.3     
 112 C112         -45.4927     4.9744    -9.1740 C.3     
 113 C113         -46.3206     5.9213   -10.0451 C.3     
 114 C114         -47.2102     5.1039   -10.9839 C.3     
 115 C115         -46.4245     4.1786    -8.2578 C.3     
 116 O116         -46.1528     7.5633    -7.8163 O.3     
 117 C117           2.9356    -1.6937     2.3411 C.2     
 118 O118           3.0954    -0.6978     3.0146 O.2     
 119 C119          20.5114    -6.4645     6.7592 C.3     
 120 C120          19.3762    -5.4492     6.9047 C.3     
 121 C121          18.1604    -5.9259     6.1075 C.3     
 122 C122          17.0251    -4.9105     6.2531 C.3     
 123 C123          15.8093    -5.3872     5.4559 C.3     
 124 C124          14.6740    -4.3719     5.6015 C.3     
 125 C125          13.4582    -4.8485     4.8043 C.3     
 126 C126          12.3229    -3.8332     4.9498 C.3     
 127 C127          11.1071    -4.3098     4.1526 C.3     
 128 C128           9.9718    -3.2945     4.2982 C.3     
 129 C129           8.7560    -3.7711     3.5010 C.3     
 130 C130           7.6207    -2.7558     3.6466 C.3     
 131 C131           6.4049    -3.2325     2.8494 C.3     
 132 C132           5.2697    -2.2171     2.9949 C.3     
 133 C133           4.0538    -2.6938     2.1977 C.3     
 134 H134           1.6303    -2.7026     1.1823 H       
 135 H135           0.6924    -0.5061     2.8626 H       
 136 H136           0.9150    -0.2564    -0.1700 H       
 137 H137          -0.0073     0.8551     0.8703 H       
 138 H138           3.1903     0.8209    -0.7533 H       
 139 H139           4.9104     2.2132     0.5917 H       
 140 H140           4.0870     2.6581     2.9716 H       
 141 H141          -1.7733     0.0294     1.9107 H       
 142 H142          -2.9621    -2.3610     0.7274 H       
 143 H143          -3.6807    -1.4504     3.5508 H       
 144 H144          -4.5162    -2.7211     2.6258 H       
 145 H145          -2.8254    -2.9539     3.1313 H       
 146 H146          -5.6140    -1.8980     0.8540 H       
 147 H147          -6.1639     0.9691     0.7818 H       
 148 H148          -6.9684     0.9168    -1.5632 H       
 149 H149          -4.0923    -0.0522    -1.2372 H       
 150 H150          -4.7455     0.8015    -2.6560 H       
 151 H151          -4.6431     1.6336    -1.0858 H       
 152 H152          -7.4936    -1.5045    -1.6618 H       
 153 H153          -6.4101    -1.0311    -2.9923 H       
 154 H154          -5.7569    -1.8848    -1.5736 H       
 155 H155          -8.6903     1.1226    -0.1437 H       
 156 H156         -10.1929    -1.2805     0.5597 H       
 157 H157         -10.3654     1.2865     2.1997 H       
 158 H158         -11.5231    -0.0612     2.3078 H       
 159 H159          -8.6988     1.1318     4.1685 H       
 160 H160          -7.4773    -0.8334     5.3313 H       
 161 H161          -8.1751    -3.0817     4.3321 H       
 162 H162         -12.7638    -0.4730     0.5222 H       
 163 H163         -13.1189     1.7484    -1.3398 H       
 164 H164         -13.8331    -1.1159    -2.1162 H       
 165 H165         -14.2399     0.3445    -3.0489 H       
 166 H166         -12.5381    -0.1353    -2.8441 H       
 167 H167         -15.7318     1.6390    -1.9903 H       
 168 H168         -17.2860     0.4594     0.1824 H       
 169 H169         -18.2464     2.6336     0.8886 H       
 170 H170         -16.4903     2.5876     1.1755 H       
 171 H171         -17.1411     3.4817    -0.2193 H       
 172 H172         -19.7755     1.4152    -0.2066 H       
 173 H173         -20.2289     1.9883    -3.0339 H       
 174 H174         -21.1540    -0.6104    -1.7301 H       
 175 H175         -21.7288    -0.0091    -3.3037 H       
 176 H176         -19.4025    -0.0309    -4.1618 H       
 177 H177         -18.8277    -0.6322    -2.5881 H       
 178 H178         -20.2422    -2.6527    -2.8435 H       
 179 H179         -20.8170    -2.0515    -4.4171 H       
 180 H180         -17.9939    -2.1183    -4.4671 H       
 181 H181         -19.9742    -5.5436    -5.0526 H       
 182 H182         -16.9378    -3.9547    -5.5546 H       
 183 H183         -17.7816    -5.3876    -5.7939 H       
 184 H184         -22.9078     1.8637    -3.3002 H       
 185 H185         -24.2260     2.5513    -0.7868 H       
 186 H186         -23.8404     4.5808    -3.0321 H       
 187 H187         -24.9630     4.7864    -1.6661 H       
 188 H188         -21.6884     5.9352    -2.5713 H       
 189 H189         -20.2516     6.3510    -0.4573 H       
 190 H190         -21.2782     5.2285     1.5984 H       
 191 H191         -26.6733     3.3874    -1.5447 H       
 192 H192         -27.4706     2.1075    -4.0455 H       
 193 H193         -28.3850     1.0753    -1.3239 H       
 194 H194         -29.1278     0.6240    -2.8772 H       
 195 H195         -26.9488    -0.2616    -3.6620 H       
 196 H196         -26.2059     0.1897    -2.1086 H       
 197 H197         -27.7784    -1.3145    -0.9197 H       
 198 H198         -28.5212    -1.7657    -2.4730 H       
 199 H199         -25.7433    -2.2467    -2.6419 H       
 200 H200         -25.9923    -5.5592    -1.5604 H       
 201 H201         -28.6191    -3.3903    -0.9343 H       
 202 H202         -28.0779    -4.9682    -0.7347 H       
 203 H203         -30.1628     2.2227    -4.0043 H       
 204 H204         -31.0721     4.5174    -2.4439 H       
 205 H205         -30.8596     4.5980    -5.4864 H       
 206 H206         -31.7667     5.7741    -4.5055 H       
 207 H207         -29.6879     6.3622    -3.2883 H       
 208 H208         -28.7808     5.1861    -4.2692 H       
 209 H209         -29.3865     6.4336    -6.3249 H       
 210 H210         -30.2936     7.6096    -5.3440 H       
 211 H211         -27.6576     7.4593    -4.3411 H       
 212 H212         -28.3123     9.6766    -7.6049 H       
 213 H213         -26.1226     9.1677    -4.9700 H       
 214 H214         -26.4103    10.0915    -6.3435 H       
 215 H215         -33.5426     5.0099    -3.3373 H       
 216 H216         -34.7074     2.6270    -4.5770 H       
 217 H217         -34.6789     2.1643    -2.1007 H       
 218 H218         -35.6696     3.6233    -1.8592 H       
 219 H219         -37.3791     2.6427    -3.4359 H       
 220 H220         -37.2129     0.2525    -3.9923 H       
 221 H221         -35.7889     1.1181    -4.6176 H       
 222 H222         -35.6567     0.1413    -3.1355 H       
 223 H223         -37.6101     2.4308    -0.9761 H       
 224 H224         -38.2418     0.9872    -1.8038 H       
 225 H225         -36.6473     0.9342    -1.0146 H       
 226 H226         -36.9100     3.1174    -5.4547 H       
 227 H227         -37.9754     5.7777    -4.8569 H       
 228 H228         -36.3592     6.0954    -6.7672 H       
 229 H229         -37.3305     4.9482    -7.7204 H       
 230 H230         -39.3352     6.4234    -7.3527 H       
 231 H231         -37.2542     8.3499    -6.2251 H       
 232 H232         -38.9830     8.6921    -6.4752 H       
 233 H233         -38.4798     7.4937    -5.2592 H       
 234 H234         -37.9659     6.6053    -9.4120 H       
 235 H235         -38.6045     8.1944    -8.9271 H       
 236 H236         -36.9038     7.7817    -8.6020 H       
 237 H237         -40.2408     6.0030    -6.0343 H       
 238 H238         -41.3164     3.4725    -7.0179 H       
 239 H239         -43.1062     3.3459    -5.3524 H       
 240 H240         -41.5334     3.3242    -4.5193 H       
 241 H241         -43.0391     4.8974    -3.5375 H       
 242 H242         -43.9394     3.9772    -7.3756 H       
 243 H243         -43.9098     6.4217    -8.9728 H       
 244 H244         -44.9362     4.2874    -9.8114 H       
 245 H245         -46.9443     6.5489    -9.4085 H       
 246 H246         -45.6530     6.5506   -10.6336 H       
 247 H247         -46.5866     4.4763   -11.6206 H       
 248 H248         -47.8778     4.4745   -10.3955 H       
 249 H249         -47.8000     5.7784   -11.6046 H       
 250 H250         -46.9810     4.8656    -7.6203 H       
 251 H251         -47.1216     3.5992    -8.8632 H       
 252 H252         -45.8347     3.5040    -7.6371 H       
 253 H253         -46.6236     8.0918    -7.1574 H       
 254 H254          20.7812    -6.5597     5.7074 H       
 255 H255          21.3776    -6.1250     7.3271 H       
 256 H256          20.1843    -7.4323     7.1393 H       
 257 H257          19.1064    -5.3541     7.9565 H       
 258 H258          19.7033    -4.4815     6.5246 H       
 259 H259          18.4301    -6.0210     5.0557 H       
 260 H260          17.8333    -6.8936     6.4877 H       
 261 H261          16.7553    -4.8154     7.3049 H       
 262 H262          17.3522    -3.9428     5.8729 H       
 263 H263          16.0790    -5.4823     4.4041 H       
 264 H264          15.4822    -6.3549     5.8361 H       
 265 H265          14.4043    -4.2767     6.6533 H       
 266 H266          15.0011    -3.4041     5.2213 H       
 267 H267          13.7279    -4.9436     3.7525 H       
 268 H268          13.1311    -5.8163     5.1844 H       
 269 H269          12.0532    -3.7381     6.0016 H       
 270 H270          12.6500    -2.8654     4.5697 H       
 271 H271          11.3768    -4.4049     3.1008 H       
 272 H272          10.7800    -5.2776     4.5328 H       
 273 H273           9.7021    -3.1994     5.3500 H       
 274 H274          10.2989    -2.3267     3.9180 H       
 275 H275           9.0257    -3.8663     2.4492 H       
 276 H276           8.4289    -4.7389     3.8812 H       
 277 H277           7.3510    -2.6607     4.6984 H       
 278 H278           7.9478    -1.7881     3.2664 H       
 279 H279           6.6747    -3.3276     1.7976 H       
 280 H280           6.0778    -4.2002     3.2295 H       
 281 H281           4.9999    -2.1220     4.0467 H       
 282 H282           5.5968    -1.2494     2.6148 H       
 283 H283           3.7267    -3.6615     2.5779 H       
 284 H284           4.3236    -2.7889     1.1459 H       
@<TRIPOS>BOND
   1    1    2 2
   2    1    4 1
   3    1   13 am
   4    3  117 am
   5    3    4 1
   6    3  134 1
   7    4    5 1
   8    4  135 1
   9    5    6 1
  10    5  136 1
  11    5  137 1
  12    6    7 2
  13    6   10 1
  14    7    8 1
  15    7  138 1
  16    8    9 1
  17    8  139 1
  18    9   10 2
  19    9  140 1
  20   11   12 2
  21   11   14 1
  22   11   18 am
  23   13   14 1
  24   13  141 1
  25   14   15 1
  26   14  142 1
  27   15  143 1
  28   15  144 1
  29   15  145 1
  30   16   17 2
  31   16   19 1
  32   16   25 am
  33   18   19 1
  34   18  146 1
  35   19   20 1
  36   19  147 1
  37   20   21 1
  38   20   22 1
  39   20  148 1
  40   21  149 1
  41   21  150 1
  42   21  151 1
  43   22  152 1
  44   22  153 1
  45   22  154 1
  46   23   24 2
  47   23   26 1
  48   23   35 am
  49   25   26 1
  50   25  155 1
  51   26   27 1
  52   26  156 1
  53   27   28 1
  54   27  157 1
  55   27  158 1
  56   28   29 2
  57   28   32 1
  58   29   30 1
  59   29  159 1
  60   30   31 1
  61   30  160 1
  62   31   32 2
  63   31  161 1
  64   33   34 2
  65   33   36 1
  66   33   40 am
  67   35   36 1
  68   35  162 1
  69   36   37 1
  70   36  163 1
  71   37  164 1
  72   37  165 1
  73   37  166 1
  74   38   39 2
  75   38   41 1
  76   38   45 am
  77   40   41 1
  78   40  167 1
  79   41   42 1
  80   41  168 1
  81   42  169 1
  82   42  170 1
  83   42  171 1
  84   43   44 2
  85   43   46 1
  86   43   56 am
  87   45   46 1
  88   45  172 1
  89   46   47 1
  90   46  173 1
  91   47   48 1
  92   47  174 1
  93   47  175 1
  94   48   49 1
  95   48  176 1
  96   48  177 1
  97   49   50 1
  98   49  178 1
  99   49  179 1
 100   50   51 1
 101   50  180 1
 102   51   52 2
 103   51   53 1
 104   52  181 1
 105   53  182 1
 106   53  183 1
 107   54   55 2
 108   54   57 1
 109   54   66 am
 110   56   57 1
 111   56  184 1
 112   57   58 1
 113   57  185 1
 114   58   59 1
 115   58  186 1
 116   58  187 1
 117   59   60 2
 118   59   63 1
 119   60   61 1
 120   60  188 1
 121   61   62 1
 122   61  189 1
 123   62   63 2
 124   62  190 1
 125   64   65 2
 126   64   67 1
 127   64   77 am
 128   66   67 1
 129   66  191 1
 130   67   68 1
 131   67  192 1
 132   68   69 1
 133   68  193 1
 134   68  194 1
 135   69   70 1
 136   69  195 1
 137   69  196 1
 138   70   71 1
 139   70  197 1
 140   70  198 1
 141   71   72 1
 142   71  199 1
 143   72   73 2
 144   72   74 1
 145   73  200 1
 146   74  201 1
 147   74  202 1
 148   75   76 2
 149   75   78 1
 150   75   88 am
 151   77   78 1
 152   77  203 1
 153   78   79 1
 154   78  204 1
 155   79   80 1
 156   79  205 1
 157   79  206 1
 158   80   81 1
 159   80  207 1
 160   80  208 1
 161   81   82 1
 162   81  209 1
 163   81  210 1
 164   82   83 1
 165   82  211 1
 166   83   84 2
 167   83   85 1
 168   84  212 1
 169   85  213 1
 170   85  214 1
 171   86   87 2
 172   86   89 1
 173   86   96 am
 174   88   89 1
 175   88  215 1
 176   89   90 1
 177   89  216 1
 178   90   91 1
 179   90  217 1
 180   90  218 1
 181   91   92 1
 182   91   93 1
 183   91  219 1
 184   92  220 1
 185   92  221 1
 186   92  222 1
 187   93  223 1
 188   93  224 1
 189   93  225 1
 190   94   95 2
 191   94   97 1
 192   94  104 am
 193   96   97 1
 194   96  226 1
 195   97   98 1
 196   97  227 1
 197   98   99 1
 198   98  228 1
 199   98  229 1
 200   99  100 1
 201   99  101 1
 202   99  230 1
 203  100  231 1
 204  100  232 1
 205  100  233 1
 206  101  234 1
 207  101  235 1
 208  101  236 1
 209  102  103 2
 210  102  105 1
 211  102  110 am
 212  104  105 1
 213  104  237 1
 214  105  106 1
 215  105  238 1
 216  106  107 1
 217  106  239 1
 218  106  240 1
 219  107  241 1
 220  108  109 2
 221  108  111 1
 222  108  116 1
 223  110  111 1
 224  110  242 1
 225  111  112 1
 226  111  243 1
 227  112  113 1
 228  112  115 1
 229  112  244 1
 230  113  114 1
 231  113  245 1
 232  113  246 1
 233  114  247 1
 234  114  248 1
 235  114  249 1
 236  115  250 1
 237  115  251 1
 238  115  252 1
 239  116  253 1
 240  117  118 2
 241  117  133 1
 242  119  120 1
 243  119  254 1
 244  119  255 1
 245  119  256 1
 246  120  121 1
 247  120  257 1
 248  120  258 1
 249  121  122 1
 250  121  259 1
 251  121  260 1
 252  122  123 1
 253  122  261 1
 254  122  262 1
 255  123  124 1
 256  123  263 1
 257  123  264 1
 258  124  125 1
 259  124  265 1
 260  124  266 1
 261  125  126 1
 262  125  267 1
 263  125  268 1
 264  126  127 1
 265  126  269 1
 266  126  270 1
 267  127  128 1
 268  127  271 1
 269  127  272 1
 270  128  129 1
 271  128  273 1
 272  128  274 1
 273  129  130 1
 274  129  275 1
 275  129  276 1
 276  130  131 1
 277  130  277 1
 278  130  278 1
 279  131  132 1
 280  131  279 1
 281  131  280 1
 282  132  133 1
 283  132  281 1
 284  132  282 1
 285  133  283 1
 286  133  284 1

#	End of record

