#	Name: ASD02039145
#	Creating user name:	WinNT
#	Creation time:	15. 06. 2019 20:17

#	Modifying user name:	WinNT
#	Modification time:	15. 06. 2019 20:17

#	Program:	/corina/corina34_cracker 3.40 0067  02.08.2006

@<TRIPOS>MOLECULE
ASD02039145
  42   45    0    0    0
SMALL
NO_CHARGES


@<TRIPOS>ATOM
   1 N1            -0.0424     1.3701    -0.1207 N.2     
   2 C2            -0.0047     0.0650    -0.0761 C.2     
   3 N3             1.2925    -0.3006    -0.1575 N.2     
   4 C4             1.9688     0.8182    -0.2473 C.2     
   5 O5             1.0810     1.8169    -0.2187 O.3     
   6 C6             3.4654     0.9533    -0.3608 C.3     
   7 O7             3.7818     1.9096    -1.3744 O.3     
   8 C8             4.9969     1.7950    -1.9736 C.ar    
   9 N9            -1.0960    -0.7878     0.0350 N.pl3   
  10 C10           -2.3836    -0.2608     0.1770 C.ar    
  11 C11           -2.6997     0.9663    -0.3925 C.ar    
  12 C12           -3.9716     1.4855    -0.2514 C.ar    
  13 C13           -4.9321     0.7851     0.4565 C.ar    
  14 C14           -4.6206    -0.4393     1.0260 C.ar    
  15 C15           -3.3495    -0.9659     0.8824 C.ar    
  16 C16            5.3236     2.6259    -3.0423 C.ar    
  17 C17            6.5501     2.5242    -3.6612 C.ar    
  18 C18            7.4755     1.5849    -3.2193 C.ar    
  19 C19            7.1494     0.7429    -2.1392 C.ar    
  20 C20            5.9030     0.8593    -1.5157 C.ar    
  21 N21            8.7092     1.4667    -3.8267 N.am    
  22 C22            9.6051     0.5588    -3.4019 C.2     
  23 C23            9.3267    -0.3085    -2.3240 C.2     
  24 C24            8.1327    -0.2422    -1.6849 C.2     
  25 O25           10.6850     0.4825    -3.9622 O.2     
  26 F26           -5.5601    -1.1214     1.7169 F       
  27 Cl27          -6.5297     1.4413     0.6321 Cl      
  28 C28            4.0383     1.4212     0.9785 C.3     
  29 H29            3.8984    -0.0118    -0.6240 H       
  30 H30           -0.9648    -1.7486     0.0141 H       
  31 H31           -1.9508     1.5143    -0.9450 H       
  32 H32           -4.2168     2.4397    -0.6940 H       
  33 H33           -3.1062    -1.9200     1.3261 H       
  34 H34            4.6083     3.3567    -3.3896 H       
  35 H35            6.7928     3.1734    -4.4895 H       
  36 H36            5.6479     0.2161    -0.6864 H       
  37 H37            8.9330     2.0470    -4.5711 H       
  38 H38           10.0676    -1.0275    -2.0067 H       
  39 H39            7.9118    -0.9017    -0.8587 H       
  40 H40            3.6053     2.3862     1.2416 H       
  41 H41            3.7970     0.6917     1.7516 H       
  42 H42            5.1208     1.5189     0.8963 H       
@<TRIPOS>BOND
   1    1    2 2
   2    1    5 1
   3    2    3 1
   4    2    9 1
   5    3    4 2
   6    4    5 1
   7    4    6 1
   8    6    7 1
   9    6   28 1
  10    6   29 1
  11    7    8 1
  12    8   16 ar
  13    8   20 ar
  14    9   10 1
  15    9   30 1
  16   10   11 ar
  17   10   15 ar
  18   11   12 ar
  19   11   31 1
  20   12   13 ar
  21   12   32 1
  22   13   14 ar
  23   13   27 1
  24   14   15 ar
  25   14   26 1
  26   15   33 1
  27   16   17 ar
  28   16   34 1
  29   17   18 ar
  30   17   35 1
  31   18   19 ar
  32   18   21 1
  33   19   20 ar
  34   19   24 1
  35   20   36 1
  36   21   22 am
  37   21   37 1
  38   22   23 1
  39   22   25 2
  40   23   24 2
  41   23   38 1
  42   24   39 1
  43   28   40 1
  44   28   41 1
  45   28   42 1

#	End of record

