#	Name: ASD01811625
#	Creating user name:	WinNT
#	Creation time:	15. 06. 2019 19:27

#	Modifying user name:	WinNT
#	Modification time:	15. 06. 2019 19:27

#	Program:	/corina/corina34_cracker 3.40 0067  02.08.2006

@<TRIPOS>MOLECULE
ASD01811625
  48   50    0    0    0
SMALL
NO_CHARGES


@<TRIPOS>ATOM
   1 C1            -0.0414    -0.0201    -0.0666 C.1     
   2 C2            -0.0539     1.4117    -0.0437 C.ar    
   3 C3             1.1474     2.1234    -0.0307 C.ar    
   4 C4             1.1281     3.5025    -0.0087 C.ar    
   5 C5            -0.0779     4.1806     0.0010 C.ar    
   6 C6            -1.2720     3.4817    -0.0114 C.ar    
   7 C7            -1.2673     2.1025    -0.0402 C.ar    
   8 N8            -0.0316    -1.1559    -0.0847 N.1     
   9 N9            -1.3618     8.2140     0.0660 N.am    
  10 C10           -0.7965     7.7430    -1.2058 C.3     
  11 C11           -0.8154     6.2113    -1.2166 C.3     
  12 C12           -0.0910     5.6874     0.0255 C.3     
  13 C13           -0.8169     6.1705     1.2832 C.3     
  14 C14           -0.7980     7.7018     1.3224 C.3     
  15 C15           -2.3745     9.1031     0.0799 C.2     
  16 C16           -2.9949     9.4971     1.3630 C.ar    
  17 C17           -4.3729     9.3550     1.5470 C.ar    
  18 C18           -4.9553     9.7221     2.7442 C.ar    
  19 C19           -4.1825    10.2318     3.7679 C.ar    
  20 C20           -2.8014    10.3803     3.5980 C.ar    
  21 C21           -2.2064    10.0050     2.3920 C.ar    
  22 O22           -2.7779     9.5812    -0.9623 O.2     
  23 C23           -4.8271    10.6296     5.0707 C.3     
  24 C24           -5.2259     8.8000     0.4356 C.3     
  25 C25           -1.9777    10.9248     4.6895 C.2     
  26 O26           -0.7812    11.0526     4.5403 O.2     
  27 H27            2.0895     1.5953    -0.0375 H       
  28 H28            2.0565     4.0542     0.0014 H       
  29 H29           -2.2098     4.0173    -0.0034 H       
  30 H30           -2.2000     1.5583    -0.0548 H       
  31 H31           -1.3951     8.1217    -2.0342 H       
  32 H32            0.2301     8.0965    -1.3025 H       
  33 H33           -1.8473     5.8601    -1.2112 H       
  34 H34           -0.3115     5.8475    -2.1121 H       
  35 H35            0.9336     6.0593     0.0323 H       
  36 H36           -1.8487     5.8197     1.2651 H       
  37 H37           -0.3141     5.7777     2.1670 H       
  38 H38            0.2284     8.0519     1.4318 H       
  39 H39           -1.3976     8.0533     2.1620 H       
  40 H40           -6.0209     9.6101     2.8799 H       
  41 H41           -1.1404    10.1123     2.2563 H       
  42 H42           -4.8361     9.7752     5.7474 H       
  43 H43           -4.2614    11.4447     5.5220 H       
  44 H44           -5.8501    10.9567     4.8848 H       
  45 H45           -5.2111     7.7108     0.4755 H       
  46 H46           -6.2502     9.1540     0.5524 H       
  47 H47           -4.8334     9.1338    -0.5250 H       
  48 H48           -2.4390    11.2104     5.6233 H       
@<TRIPOS>BOND
   1    1    2 1
   2    1    8 3
   3    2    3 ar
   4    2    7 ar
   5    3    4 ar
   6    3   27 1
   7    4    5 ar
   8    4   28 1
   9    5    6 ar
  10    5   12 1
  11    6    7 ar
  12    6   29 1
  13    7   30 1
  14    9   10 1
  15    9   14 1
  16    9   15 am
  17   10   11 1
  18   10   31 1
  19   10   32 1
  20   11   12 1
  21   11   33 1
  22   11   34 1
  23   12   13 1
  24   12   35 1
  25   13   14 1
  26   13   36 1
  27   13   37 1
  28   14   38 1
  29   14   39 1
  30   15   16 1
  31   15   22 2
  32   16   17 ar
  33   16   21 ar
  34   17   18 ar
  35   17   24 1
  36   18   19 ar
  37   18   40 1
  38   19   20 ar
  39   19   23 1
  40   20   21 ar
  41   20   25 1
  42   21   41 1
  43   23   42 1
  44   23   43 1
  45   23   44 1
  46   24   45 1
  47   24   46 1
  48   24   47 1
  49   25   26 2
  50   25   48 1

#	End of record

