#	Name: ASD00111018
#	Creating user name:	WinNT
#	Creation time:	15. 06. 2019 18:30

#	Modifying user name:	WinNT
#	Modification time:	15. 06. 2019 18:30

#	Program:	/corina/corina34_cracker 3.40 0067  02.08.2006

@<TRIPOS>MOLECULE
ASD00111018
  32   33    0    0    0
SMALL
NO_CHARGES


@<TRIPOS>ATOM
   1 C1            -0.1081     1.1437     0.4869 C.ar    
   2 C2            -0.1836    -0.2421     0.5054 C.ar    
   3 C3            -1.4160    -0.8618     0.3859 C.ar    
   4 C4            -2.5721    -0.1064     0.2481 C.ar    
   5 C5            -2.4942     1.2660     0.2080 C.ar    
   6 C6            -1.2594     1.8899     0.3440 C.ar    
   7 C7            -3.8858    -0.8395     0.1766 C.3     
   8 C8            -4.7173    -0.3421    -1.0089 C.3     
   9 N9            -5.5997     0.7224    -0.5271 N.3     
  10 C10           -4.9662     1.4980     0.5471 C.3     
  11 C11           -3.6986     2.1507    -0.0019 C.3     
  12 Br12           1.5656     2.0056     0.6646 Br      
  13 C13           -3.4717     3.4845     0.7125 C.3     
  14 O14           -4.5725     4.3577     0.4521 O.3     
  15 O15            0.9457    -0.9864     0.6396 O.3     
  16 C16            0.7891    -2.4068     0.6501 C.3     
  17 H17           -1.4780    -1.9399     0.3997 H       
  18 H18           -1.2001     2.9682     0.3296 H       
  19 H19           -3.6958    -1.9065     0.0597 H       
  20 H20           -4.4408    -0.6731     1.0998 H       
  21 H21           -4.0576     0.0486    -1.7837 H       
  22 H22           -5.3136    -1.1615    -1.4104 H       
  23 H23           -5.8888     1.3229    -1.2846 H       
  24 H24           -5.6533     2.2693     0.8952 H       
  25 H25           -4.7079     0.8353     1.3731 H       
  26 H26           -3.8250     2.3350    -1.0687 H       
  27 H27           -3.3903     3.3126     1.7858 H       
  28 H28           -2.5517     3.9406     0.3468 H       
  29 H29           -4.4959     5.2240     0.8748 H       
  30 H30            0.1474    -2.6954     1.4827 H       
  31 H31            0.3354    -2.7293    -0.2870 H       
  32 H32            1.7649    -2.8791     0.7628 H       
@<TRIPOS>BOND
   1    1    2 ar
   2    1   12 1
   3    1    6 ar
   4    2    3 ar
   5    2   15 1
   6    3    4 ar
   7    3   17 1
   8    4    5 ar
   9    4    7 1
  10    5    6 ar
  11    5   11 1
  12    6   18 1
  13    7    8 1
  14    7   19 1
  15    7   20 1
  16    8    9 1
  17    8   21 1
  18    8   22 1
  19    9   10 1
  20    9   23 1
  21   10   11 1
  22   10   24 1
  23   10   25 1
  24   11   13 1
  25   11   26 1
  26   13   14 1
  27   13   27 1
  28   13   28 1
  29   14   29 1
  30   15   16 1
  31   16   30 1
  32   16   31 1
  33   16   32 1

#	End of record

