#	Name: ASD01814178
#	Creating user name:	WinNT
#	Creation time:	15. 06. 2019 19:31

#	Modifying user name:	WinNT
#	Modification time:	15. 06. 2019 19:31

#	Program:	/corina/corina34_cracker 3.40 0067  02.08.2006

@<TRIPOS>MOLECULE
ASD01814178
  54   58    0    0    0
SMALL
NO_CHARGES


@<TRIPOS>ATOM
   1 N1            -0.2353     2.3547    -3.5787 N.2     
   2 C2            -0.3057     1.3459    -4.4149 C.2     
   3 C3             0.7948     1.0175    -5.2214 C.2     
   4 C4             1.9313     1.7516    -5.1290 C.2     
   5 N5             1.9776     2.7964    -4.2504 N.pl3   
   6 C6             0.8821     3.0868    -3.4790 C.2     
   7 N7             2.9784     3.7193    -3.9297 N.2     
   8 C8             2.5219     4.5395    -3.0048 C.2     
   9 C9             1.2202     4.1832    -2.6947 C.2     
  10 C10            2.9111     5.7300    -2.1633 C.3     
  11 N11            1.7625     6.0752    -1.3199 N.am    
  12 C12            0.6959     5.1202    -1.6371 C.3     
  13 C13            1.6991     7.0795    -0.4233 C.2     
  14 O14            0.6522     7.3210     0.1462 O.2     
  15 C15            2.8990     7.8854    -0.1330 C.ar    
  16 C16            2.8027     9.2807    -0.0294 C.ar    
  17 C17            4.1369     7.2623     0.0460 C.ar    
  18 C18            5.2546     8.0196     0.3174 C.ar    
  19 C19            5.1573     9.4009     0.4142 C.ar    
  20 C20            3.9360    10.0291     0.2442 C.ar    
  21 O21            1.6048     9.8950    -0.1968 O.3     
  22 C22            1.6030    11.3240    -0.1967 C.3     
  23 C23            1.4668    13.3646     1.2356 C.3     
  24 C24            1.5300    11.8355     1.2447 C.3     
  25 C25            0.3859    11.8342    -0.9733 C.3     
  26 C26            0.3559    13.3633    -0.9180 C.3     
  27 N27            0.2854    13.8025     0.4814 N.3     
  28 C28            3.1270     1.4190    -5.9838 C.3     
  29 Cl29           0.7024    -0.3174    -6.3274 Cl      
  30 C30           -1.5733     0.5363    -4.5093 C.3     
  31 F31            6.2594    10.1352     0.6812 F       
  32 F32            0.3845    11.3245     1.8642 F       
  33 H33            3.7661     5.4759    -1.5369 H       
  34 H34            3.1620     6.5721    -2.8083 H       
  35 H35           -0.1769     5.6526    -2.0149 H       
  36 H36            0.4278     4.5562    -0.7437 H       
  37 H37            4.2170     6.1878    -0.0282 H       
  38 H38            6.2107     7.5369     0.4559 H       
  39 H39            3.8663    11.1039     0.3244 H       
  40 H40            2.5153    11.6895    -0.6681 H       
  41 H41            1.4004    13.7314     2.2599 H       
  42 H42            2.3660    13.7624     0.7652 H       
  43 H43            2.4155    11.5111     1.7913 H       
  44 H44            0.4540    11.5088    -2.0113 H       
  45 H45           -0.5246    11.4360    -0.5255 H       
  46 H46            1.2603    13.7611    -1.3784 H       
  47 H47           -0.5174    13.7291    -1.4580 H       
  48 H48           -0.5638    13.4787     0.9197 H       
  49 H49            2.8957     0.5601    -6.6137 H       
  50 H50            3.3737     2.2746    -6.6123 H       
  51 H51            3.9766     1.1816    -5.3435 H       
  52 H52           -2.3117     0.9352    -3.8138 H       
  53 H53           -1.9644     0.5908    -5.5252 H       
  54 H54           -1.3605    -0.5025    -4.2570 H       
@<TRIPOS>BOND
   1    1    2 2
   2    1    6 1
   3    2    3 1
   4    2   30 1
   5    3    4 2
   6    3   29 1
   7    4    5 1
   8    4   28 1
   9    5    7 1
  10    5    6 1
  11    6    9 2
  12    7    8 2
  13    8   10 1
  14    8    9 1
  15    9   12 1
  16   10   11 1
  17   10   33 1
  18   10   34 1
  19   11   12 1
  20   11   13 am
  21   12   35 1
  22   12   36 1
  23   13   14 2
  24   13   15 1
  25   15   17 ar
  26   15   16 ar
  27   16   20 ar
  28   16   21 1
  29   17   18 ar
  30   17   37 1
  31   18   19 ar
  32   18   38 1
  33   19   20 ar
  34   19   31 1
  35   20   39 1
  36   21   22 1
  37   22   25 1
  38   22   24 1
  39   22   40 1
  40   23   24 1
  41   23   27 1
  42   23   41 1
  43   23   42 1
  44   24   32 1
  45   24   43 1
  46   25   26 1
  47   25   44 1
  48   25   45 1
  49   26   27 1
  50   26   46 1
  51   26   47 1
  52   27   48 1
  53   28   49 1
  54   28   50 1
  55   28   51 1
  56   30   52 1
  57   30   53 1
  58   30   54 1

#	End of record

