#	Name: ASD01912505
#	Creating user name:	WinNT
#	Creation time:	15. 06. 2019 19:59

#	Modifying user name:	WinNT
#	Modification time:	15. 06. 2019 19:59

#	Program:	/corina/corina34_cracker 3.40 0067  02.08.2006

@<TRIPOS>MOLECULE
ASD01912505
  42   45    0    0    0
SMALL
NO_CHARGES


@<TRIPOS>ATOM
   1 C1            -0.0617     1.3287     0.0629 C.2     
   2 O2            -0.0752    -0.0077     0.0909 O.3     
   3 N3             1.0601    -0.4343     0.1049 N.2     
   4 C4             1.9128     0.5568     0.0879 C.2     
   5 N5             1.1939     1.7016     0.0606 N.2     
   6 C6             3.3929     0.4458     0.0973 C.ar    
   7 C7             3.9998    -0.8077     0.1263 C.ar    
   8 C8             5.3767    -0.9051     0.1344 C.ar    
   9 C9             6.1535     0.2389     0.1143 C.ar    
  10 C10            5.5560     1.4864     0.0854 C.ar    
  11 C11            4.1804     1.5951     0.0713 C.ar    
  12 C12           -1.2649     2.2355     0.0329 C.3     
  13 C13           -2.2510     1.9966     1.1906 C.3     
  14 C14           -2.9527     0.9963     0.2541 C.3     
  15 N15           -2.3457     1.7607    -0.8528 N.am    
  16 C16           -2.6545     1.9494    -2.1511 C.2     
  17 C17           -3.7763     1.2025    -2.7606 C.ar    
  18 O18           -2.0111     2.7333    -2.8210 O.2     
  19 C19           -4.4239     0.2007    -2.0350 C.ar    
  20 C20           -5.4688    -0.4946    -2.6021 C.ar    
  21 C21           -5.8806    -0.1975    -3.9033 C.ar    
  22 C22           -5.2326     0.8047    -4.6289 C.ar    
  23 C23           -4.1912     1.5033    -4.0594 C.ar    
  24 C24            6.0347    -2.2605     0.1658 C.3     
  25 C25           -6.9667    -0.9206    -4.4933 C.1     
  26 N26           -7.8283    -1.4942    -4.9615 N.1     
  27 H27            3.3941    -1.7018     0.1428 H       
  28 H28            7.2305     0.1583     0.1214 H       
  29 H29            6.1673     2.3766     0.0701 H       
  30 H30            3.7149     2.5694     0.0484 H       
  31 H31           -1.0038     3.2838    -0.1126 H       
  32 H32           -1.7960     1.5333     2.0661 H       
  33 H33           -2.8583     2.8677     1.4366 H       
  34 H34           -2.5782    -0.0236     0.3409 H       
  35 H35           -4.0406     1.0553     0.2841 H       
  36 H36           -4.1052    -0.0292    -1.0290 H       
  37 H37           -5.9694    -1.2697    -2.0409 H       
  38 H38           -5.5506     1.0344    -5.6352 H       
  39 H39           -3.6904     2.2785    -4.6203 H       
  40 H40            6.1979    -2.6089    -0.8541 H       
  41 H41            6.9917    -2.1879     0.6824 H       
  42 H42            5.3904    -2.9651     0.6917 H       
@<TRIPOS>BOND
   1    1    2 1
   2    1    5 2
   3    1   12 1
   4    2    3 1
   5    3    4 2
   6    4    5 1
   7    4    6 1
   8    6    7 ar
   9    6   11 ar
  10    7    8 ar
  11    7   27 1
  12    8    9 ar
  13    8   24 1
  14    9   10 ar
  15    9   28 1
  16   10   11 ar
  17   10   29 1
  18   11   30 1
  19   12   13 1
  20   12   15 1
  21   12   31 1
  22   13   14 1
  23   13   32 1
  24   13   33 1
  25   14   15 1
  26   14   34 1
  27   14   35 1
  28   15   16 am
  29   16   17 1
  30   16   18 2
  31   17   19 ar
  32   17   23 ar
  33   19   20 ar
  34   19   36 1
  35   20   21 ar
  36   20   37 1
  37   21   22 ar
  38   21   25 1
  39   22   23 ar
  40   22   38 1
  41   23   39 1
  42   24   40 1
  43   24   41 1
  44   24   42 1
  45   25   26 3

#	End of record

