#	Name: ASD01940237
#	Creating user name:	WinNT
#	Creation time:	15. 06. 2019 20:12

#	Modifying user name:	WinNT
#	Modification time:	15. 06. 2019 20:12

#	Program:	/corina/corina34_cracker 3.40 0067  02.08.2006

@<TRIPOS>MOLECULE
ASD01940237
  41   43    0    0    0
SMALL
NO_CHARGES


@<TRIPOS>ATOM
   1 S1             0.2708     1.9509    -0.2462 S.3     
   2 C2             0.3886     0.2520    -0.3987 C.2     
   3 N3             1.6268    -0.1107    -0.3883 N.2     
   4 C4             2.5307     0.8408    -0.2685 C.2     
   5 C5             2.0268     2.0749    -0.1725 C.2     
   6 S6             2.9547     3.5631    -0.0023 S.o2    
   7 O7             3.5849     3.4998     1.2697 O.2     
   8 O8             3.6721     3.7299    -1.2176 O.2     
   9 N9             1.8693     4.8114     0.0751 N.am    
  10 C10            4.0111     0.5603    -0.2415 C.3     
  11 C11           -0.7839    -0.6860    -0.5268 C.3     
  12 C12            0.9235     4.8544     1.1081 C.ar    
  13 C13           -0.3594     5.3413     0.8607 C.ar    
  14 C14           -1.2925     5.3812     1.8877 C.ar    
  15 C15           -0.9466     4.9374     3.1545 C.ar    
  16 C16            0.3277     4.4549     3.3976 C.ar    
  17 C17            1.2598     4.4075     2.3767 C.ar    
  18 N18           -0.7058     5.7897    -0.4213 N.pl3   
  19 C19           -1.8201     6.6164    -0.5955 C.ar    
  20 C20           -1.7669     7.9504    -0.2033 C.ar    
  21 C21           -2.8705     8.7643    -0.3777 C.ar    
  22 C22           -4.0265     8.2529    -0.9411 C.ar    
  23 C23           -4.0816     6.9273    -1.3311 C.ar    
  24 C24           -2.9801     6.1096    -1.1654 C.ar    
  25 I25           -5.6970     9.4897    -1.2030 I       
  26 F26           -0.6386     8.4493     0.3475 F       
  27 F27           -1.8548     4.9763     4.1539 F       
  28 F28           -2.5367     5.8526     1.6529 F       
  29 H29            1.8882     5.5128    -0.5947 H       
  30 H30            4.4046     0.5872    -1.2576 H       
  31 H31            4.5131     1.3160     0.3627 H       
  32 H32            4.1863    -0.4252     0.1900 H       
  33 H33           -1.0304    -0.8177    -1.5804 H       
  34 H34           -0.5265    -1.6510    -0.0904 H       
  35 H35           -1.6429    -0.2675    -0.0023 H       
  36 H36            0.5937     4.1107     4.3861 H       
  37 H37            2.2517     4.0259     2.5690 H       
  38 H38           -0.1726     5.5266    -1.1877 H       
  39 H39           -2.8307     9.7999    -0.0738 H       
  40 H40           -4.9857     6.5316    -1.7698 H       
  41 H41           -3.0232     5.0757    -1.4746 H       
@<TRIPOS>BOND
   1    1    2 1
   2    1    5 1
   3    2    3 2
   4    2   11 1
   5    3    4 1
   6    4    5 2
   7    4   10 1
   8    5    6 1
   9    6    7 2
  10    6    8 2
  11    6    9 am
  12    9   12 1
  13    9   29 1
  14   10   30 1
  15   10   31 1
  16   10   32 1
  17   11   33 1
  18   11   34 1
  19   11   35 1
  20   12   13 ar
  21   12   17 ar
  22   13   14 ar
  23   13   18 1
  24   14   15 ar
  25   14   28 1
  26   15   16 ar
  27   15   27 1
  28   16   17 ar
  29   16   36 1
  30   17   37 1
  31   18   19 1
  32   18   38 1
  33   19   20 ar
  34   19   24 ar
  35   20   21 ar
  36   20   26 1
  37   21   22 ar
  38   21   39 1
  39   22   23 ar
  40   22   25 1
  41   23   24 ar
  42   23   40 1
  43   24   41 1

#	End of record

