#	Name: ASD01028521
#	Creating user name:	WinNT
#	Creation time:	15. 06. 2019 18:57

#	Modifying user name:	WinNT
#	Modification time:	15. 06. 2019 18:57

#	Program:	/corina/corina34_cracker 3.40 0067  02.08.2006

@<TRIPOS>MOLECULE
ASD01028521
  47   51    0    0    0
SMALL
NO_CHARGES


@<TRIPOS>ATOM
   1 C1            -0.7246    -0.3080    -1.5033 C.2     
   2 N2            -0.2279    -1.5620    -1.5804 N.pl3   
   3 C3            -1.2413    -2.3408    -2.0871 C.2     
   4 N4            -2.2756    -1.5405    -2.2869 N.2     
   5 N5            -1.9611    -0.3431    -1.9338 N.2     
   6 N6             1.0059    -2.1355    -1.2666 N.2     
   7 C7             1.2098    -3.4210    -1.4520 C.2     
   8 C8             0.1899    -4.2466    -1.9708 C.2     
   9 C9            -1.0219    -3.7172    -2.2847 C.2     
  10 C10            2.5282    -4.0105    -1.1120 C.ar    
  11 C11            3.5432    -3.2050    -0.5994 C.ar    
  12 C12            4.7675    -3.7588    -0.2845 C.ar    
  13 C13            4.9880    -5.1107    -0.4769 C.ar    
  14 C14            3.9841    -5.9150    -0.9854 C.ar    
  15 C15            2.7542    -5.3729    -1.2988 C.ar    
  16 C16            0.0095     0.9104    -1.0056 C.3     
  17 C17            0.7126     1.5791    -2.1586 C.ar    
  18 C18            0.0622     2.5549    -2.8913 C.ar    
  19 C19            0.7042     3.1691    -3.9489 C.ar    
  20 C20            2.0031     2.8064    -4.2756 C.ar    
  21 C21            2.6537     1.8273    -3.5384 C.ar    
  22 C22            2.0089     1.2199    -2.4784 C.ar    
  23 O23            2.6368     3.4088    -5.3158 O.3     
  24 C24            2.0029     4.4354    -5.9408 C.ar    
  25 C25            2.1684     5.7353    -5.4845 C.ar    
  26 C26            1.5228     6.7772    -6.1217 C.ar    
  27 C27            0.7122     6.5255    -7.2132 C.ar    
  28 C28            0.5451     5.2311    -7.6697 C.ar    
  29 C29            1.1934     4.1863    -7.0399 C.ar    
  30 H30            0.3723    -5.3008    -2.1182 H       
  31 H31           -1.8062    -4.3444    -2.6822 H       
  32 H32            3.3723    -2.1492    -0.4492 H       
  33 H33            5.5550    -3.1354     0.1125 H       
  34 H34            5.9477    -5.5399    -0.2294 H       
  35 H35            4.1617    -6.9699    -1.1339 H       
  36 H36            1.9710    -6.0018    -1.6957 H       
  37 H37           -0.7016     1.6064    -0.5606 H       
  38 H38            0.7430     0.6118    -0.2566 H       
  39 H39           -0.9488     2.8368    -2.6366 H       
  40 H40            0.1956     3.9307    -4.5213 H       
  41 H41            3.6647     1.5432    -3.7906 H       
  42 H42            2.5149     0.4579    -1.9041 H       
  43 H43            2.8012     5.9324    -4.6318 H       
  44 H44            1.6510     7.7891    -5.7667 H       
  45 H45            0.2083     7.3415    -7.7100 H       
  46 H46           -0.0891     5.0371    -8.5220 H       
  47 H47            1.0629     3.1755    -7.3970 H       
@<TRIPOS>BOND
   1    1    2 1
   2    1   16 1
   3    1    5 2
   4    2    3 1
   5    2    6 1
   6    3    4 2
   7    3    9 1
   8    4    5 1
   9    6    7 2
  10    7    8 1
  11    7   10 1
  12    8    9 2
  13    8   30 1
  14    9   31 1
  15   10   11 ar
  16   10   15 ar
  17   11   12 ar
  18   11   32 1
  19   12   13 ar
  20   12   33 1
  21   13   14 ar
  22   13   34 1
  23   14   15 ar
  24   14   35 1
  25   15   36 1
  26   16   17 1
  27   16   37 1
  28   16   38 1
  29   17   18 ar
  30   17   22 ar
  31   18   19 ar
  32   18   39 1
  33   19   20 ar
  34   19   40 1
  35   20   21 ar
  36   20   23 1
  37   21   22 ar
  38   21   41 1
  39   22   42 1
  40   23   24 1
  41   24   25 ar
  42   24   29 ar
  43   25   26 ar
  44   25   43 1
  45   26   27 ar
  46   26   44 1
  47   27   28 ar
  48   27   45 1
  49   28   29 ar
  50   28   46 1
  51   29   47 1

#	End of record

