#	Name: ASD01914102
#	Creating user name:	WinNT
#	Creation time:	15. 06. 2019 20:02

#	Modifying user name:	WinNT
#	Modification time:	15. 06. 2019 20:02

#	Program:	/corina/corina34_cracker 3.40 0067  02.08.2006

@<TRIPOS>MOLECULE
ASD01914102
  45   48    0    0    0
SMALL
NO_CHARGES


@<TRIPOS>ATOM
   1 C1             0.0183     1.4275     0.0238 C.ar    
   2 C2             0.0306     0.0425     0.0055 C.ar    
   3 C3             2.4288     0.0673    -0.0056 C.ar    
   4 C4             2.4126     1.4543     0.0124 C.ar    
   5 O5             3.6131    -0.5992    -0.0210 O.3     
   6 C6             1.2347    -0.6385    -0.0093 C.ar    
   7 C7             1.2079     2.1309     0.0275 C.ar    
   8 F8            -1.1334    -0.6434     0.0024 F       
   9 C9             3.5539    -2.0268    -0.0390 C.3     
  10 C10            4.9527    -2.5874    -0.0542 C.ar    
  11 N11            5.1275    -3.8949    -0.0721 N.ar    
  12 C12            6.3281    -4.4360    -0.0859 C.ar    
  13 C13            7.4686    -3.6324    -0.0816 C.ar    
  14 C14            7.3152    -2.2407    -0.0628 C.ar    
  15 C15            6.0324    -1.7224    -0.0549 C.ar    
  16 C16            8.8163    -4.2400    -0.0961 C.2     
  17 N17            8.9508    -5.5809    -0.1137 N.am    
  18 C18           10.2805    -6.1820    -0.2428 C.3     
  19 O19            9.8030    -3.5302    -0.0922 O.2     
  20 C20           10.9850    -5.9268    -1.5503 C.ar    
  21 N21           12.2955    -5.7817    -1.5670 N.ar    
  22 C22           12.9542    -5.5571    -2.6872 C.ar    
  23 C23           12.2865    -5.4648    -3.8935 C.ar    
  24 C24           10.9078    -5.6120    -3.9157 C.ar    
  25 C25           10.2506    -5.8532    -2.7191 C.ar    
  26 C26           11.1420    -6.2690     1.0186 C.3     
  27 C27           10.5126    -7.5353     0.4323 C.3     
  28 H28           -0.9222     1.9584     0.0308 H       
  29 H29            3.3415     2.0053     0.0149 H       
  30 H30            1.2449    -1.7184    -0.0232 H       
  31 H31            1.1960     3.2108     0.0415 H       
  32 H32            3.0305    -2.3801     0.8494 H       
  33 H33            3.0204    -2.3571    -0.9303 H       
  34 H34            6.4307    -5.5110    -0.1004 H       
  35 H35            8.1761    -1.5886    -0.0589 H       
  36 H36            5.8756    -0.6540    -0.0404 H       
  37 H37            8.1672    -6.1479    -0.0410 H       
  38 H38           14.0279    -5.4435    -2.6615 H       
  39 H39           12.8314    -5.2799    -4.8074 H       
  40 H40           10.3594    -5.5444    -4.8436 H       
  41 H41            9.1775    -5.9734    -2.6991 H       
  42 H42           12.2183    -6.1420     0.9027 H       
  43 H43           10.7194    -5.8790     1.9445 H       
  44 H44            9.6761    -7.9782     0.9728 H       
  45 H45           11.1751    -8.2409    -0.0690 H       
@<TRIPOS>BOND
   1    1    2 ar
   2    1    7 ar
   3    1   28 1
   4    2    6 ar
   5    2    8 1
   6    3    4 ar
   7    3    5 1
   8    3    6 ar
   9    4    7 ar
  10    4   29 1
  11    5    9 1
  12    6   30 1
  13    7   31 1
  14    9   10 1
  15    9   32 1
  16    9   33 1
  17   10   11 ar
  18   10   15 ar
  19   11   12 ar
  20   12   13 ar
  21   12   34 1
  22   13   14 ar
  23   13   16 1
  24   14   15 ar
  25   14   35 1
  26   15   36 1
  27   16   17 am
  28   16   19 2
  29   17   18 1
  30   17   37 1
  31   18   20 1
  32   18   26 1
  33   18   27 1
  34   20   21 ar
  35   20   25 ar
  36   21   22 ar
  37   22   23 ar
  38   22   38 1
  39   23   24 ar
  40   23   39 1
  41   24   25 ar
  42   24   40 1
  43   25   41 1
  44   26   27 1
  45   26   42 1
  46   26   43 1
  47   27   44 1
  48   27   45 1

#	End of record

