#	Name: ASD07110009
#	Creating user name:	WinNT
#	Creation time:	15. 06. 2019 21:08

#	Modifying user name:	WinNT
#	Modification time:	15. 06. 2019 21:08

#	Program:	/corina/corina34_cracker 3.40 0067  02.08.2006

@<TRIPOS>MOLECULE
ASD07110009
 351  356    0    0    0
SMALL
NO_CHARGES


@<TRIPOS>ATOM
   1 C1           -10.1483    -6.3546   -29.8302 C.2     
   2 O2            -9.7577    -7.3816   -29.3168 O.2     
   3 N3            -7.9714    -6.2137   -30.9007 N.3     
   4 C4            -9.3535    -5.7176   -30.9408 C.3     
   5 C5            -9.9843    -6.0737   -32.2885 C.3     
   6 C6            -9.2537    -5.3275   -33.4066 C.3     
   7 C7            -9.8845    -5.6836   -34.7543 C.3     
   8 C8            -9.1540    -4.9374   -35.8724 C.3     
   9 N9            -9.7596    -5.2793   -37.1664 N.3     
  10 C10          -13.5169    -5.9979   -28.4559 C.2     
  11 O11          -13.8645    -5.2582   -29.3520 O.2     
  12 N12          -11.2961    -5.7859   -29.4110 N.am    
  13 C13          -12.0719    -6.4084   -28.3355 C.3     
  14 C14          -11.5235    -5.9529   -26.9817 C.3     
  15 C15          -10.1181    -6.4689   -26.8097 C.2     
  16 C16           -9.7529    -7.5957   -26.1780 C.2     
  17 N17           -8.3926    -7.7365   -26.2241 N.pl3   
  18 C18           -7.8351    -6.6769   -26.9039 C.ar    
  19 C19           -6.5287    -6.3313   -27.2333 C.ar    
  20 C20           -6.2847    -5.1748   -27.9414 C.ar    
  21 C21           -7.3301    -4.3490   -28.3304 C.ar    
  22 C22           -8.6212    -4.6691   -28.0169 C.ar    
  23 C23           -8.8919    -5.8393   -27.3056 C.ar    
  24 C24          -16.4903    -6.1459   -26.3346 C.2     
  25 O25          -16.0558    -6.9074   -25.4966 O.2     
  26 N26          -14.4230    -6.4528   -27.5679 N.am    
  27 C27          -15.8277    -6.0537   -27.6850 C.3     
  28 C28          -16.5417    -6.9836   -28.6680 C.3     
  29 C29          -15.9541    -6.8063   -30.0444 C.ar    
  30 C30          -14.8836    -7.5851   -30.4433 C.ar    
  31 C31          -14.3429    -7.4242   -31.7043 C.ar    
  32 C32          -14.8751    -6.4805   -32.5708 C.ar    
  33 O33          -14.3452    -6.3206   -33.8120 O.3     
  34 C34          -15.9496    -5.7006   -32.1683 C.ar    
  35 C35          -16.4900    -5.8690   -30.9081 C.ar    
  36 C36          -18.9512    -6.8268   -24.6678 C.2     
  37 O37          -18.7222    -7.6818   -25.4969 O.2     
  38 N38          -17.5659    -5.3822   -26.0582 N.am    
  39 C39          -18.3690    -5.4462   -24.8284 C.3     
  40 C40          -19.5046    -4.4107   -24.9684 C.3     
  41 C41          -19.6132    -4.2195   -26.5043 C.3     
  42 C42          -18.1281    -4.3399   -26.9363 C.3     
  43 C43          -21.1134    -8.5089   -22.1839 C.2     
  44 O44          -21.2156    -7.5241   -21.4835 O.2     
  45 N45          -19.7265    -7.1115   -23.6027 N.am    
  46 C46          -20.2925    -8.4537   -23.4465 C.3     
  47 C47          -22.5989   -11.1285   -20.1118 C.2     
  48 O48          -22.0356   -12.0105   -20.7247 O.2     
  49 N49          -21.7340    -9.6527   -21.8330 N.am    
  50 C50          -22.5320    -9.7063   -20.6056 C.3     
  51 C51          -23.9465    -9.1996   -20.8943 C.3     
  52 S52          -23.8659    -7.4877   -21.4888 S.3     
  53 C53          -24.5919   -12.9874   -17.6754 C.2     
  54 O54          -25.3483   -12.0557   -17.4998 O.2     
  55 N55          -23.2849   -11.4204   -18.9889 N.am    
  56 C56          -23.3500   -12.8030   -18.5088 C.3     
  57 C57          -22.1151   -13.1060   -17.6578 C.3     
  58 C58          -20.8629   -13.0405   -18.5346 C.3     
  59 C59          -19.6281   -13.3435   -17.6836 C.3     
  60 C60          -18.3759   -13.2780   -18.5603 C.3     
  61 N61          -17.1903   -13.5690   -17.7432 N.3     
  62 C62          -25.9251   -15.4455   -15.3427 C.2     
  63 O63          -24.9367   -16.1482   -15.3589 O.2     
  64 N64          -24.8622   -14.1877   -17.1253 N.am    
  65 C65          -26.1221   -14.3976   -16.4077 C.3     
  66 C66          -27.1971   -14.8654   -17.3908 C.3     
  67 C67          -28.5224   -15.0479   -16.6484 C.3     
  68 C68          -29.0210   -13.6887   -16.1532 C.3     
  69 C69          -29.5581   -15.6567   -17.5958 C.3     
  70 C70          -28.0653   -17.1071   -12.9097 C.2     
  71 O71          -29.0229   -16.3824   -13.0791 O.2     
  72 N72          -26.8472   -15.6018   -14.3723 N.am    
  73 C73          -26.7027   -16.6801   -13.3913 C.3     
  74 C74          -25.8751   -16.1824   -12.2045 C.3     
  75 C75          -25.6372   -17.3366   -11.2288 C.3     
  76 C76          -24.7830   -18.4097   -11.9068 C.3     
  77 C77          -24.9098   -16.8141    -9.9883 C.3     
  78 C78          -29.3279   -19.6615   -10.6198 C.2     
  79 O79          -28.2103   -20.0245   -10.3197 O.2     
  80 N80          -28.2198   -18.2942   -12.2906 N.am    
  81 C81          -29.5230   -18.6661   -11.7343 C.3     
  82 C82          -30.3862   -19.2919   -12.8316 C.3     
  83 C83          -30.6882   -18.2427   -13.9035 C.3     
  84 C84          -31.5384   -18.8591   -14.9844 C.2     
  85 O85          -31.8689   -20.0186   -14.9055 O.2     
  86 O86          -31.9285   -18.1200   -16.0348 O.3     
  87 C87          -31.4548   -21.9441    -8.7147 C.2     
  88 O88          -32.4095   -21.7455    -9.4359 O.2     
  89 N89          -30.3954   -20.1483    -9.9564 N.am    
  90 C90          -30.2057   -21.1160    -8.8730 C.3     
  91 C91          -29.9192   -20.3706    -7.5679 C.3     
  92 C92          -28.5861   -19.6290    -7.6862 C.3     
  93 C93          -28.2996   -18.8837    -6.3811 C.3     
  94 C94          -26.9666   -18.1421    -6.4995 C.3     
  95 N95          -26.6914   -17.4265    -5.2464 N.3     
  96 C96          -32.5302   -24.7058    -6.5032 C.2     
  97 O97          -31.4802   -24.7394    -5.8972 O.2     
  98 N98          -31.5110   -22.9053    -7.7717 N.am    
  99 C99          -32.7253   -23.7104    -7.6178 C.3     
 100 C100         -34.2441   -27.7069    -5.3123 C.2     
 101 O101         -34.9797   -27.7371    -6.2761 O.2     
 102 N102         -33.5225   -25.5586    -6.1800 N.am    
 103 C103         -33.3328   -26.5263    -5.0966 C.3     
 104 C104         -33.6642   -25.8642    -3.7576 C.3     
 105 C105         -32.6597   -24.7439    -3.4802 C.3     
 106 C106         -32.9861   -24.0917    -2.1614 C.2     
 107 O107         -33.9292   -24.4843    -1.5078 O.2     
 108 N108         -32.2299   -23.0722    -1.7084 N.am    
 109 C109         -35.4086   -30.5431    -3.3214 C.2     
 110 O110         -34.9171   -30.1023    -2.3040 O.2     
 111 N111         -34.2418   -28.7293    -4.4341 N.am    
 112 C112         -35.1277   -29.8771    -4.6438 C.3     
 113 C113         -34.4530   -30.8768    -5.5852 C.3     
 114 C114         -34.2808   -30.2408    -6.9660 C.3     
 115 C115         -33.6163   -31.2255    -7.8933 C.2     
 116 O116         -33.3117   -32.3234    -7.4909 O.2     
 117 O117         -33.3628   -30.8830    -9.1661 O.3     
 118 C118         -36.5848   -33.8054    -2.2663 C.2     
 119 O119         -36.6087   -34.2171    -3.4069 O.2     
 120 N120         -36.2059   -31.6284    -3.2694 N.am    
 121 C121         -36.4016   -32.3335    -2.0002 C.3     
 122 C122         -37.6445   -31.7836    -1.2976 C.3     
 123 C123         -38.8292   -31.8056    -2.2656 C.3     
 124 C124         -39.2947   -33.2487    -2.4693 C.3     
 125 C125         -37.3811   -30.3456    -0.8465 C.3     
 126 C126         -37.7314   -36.7548    -0.5291 C.2     
 127 O127         -38.3254   -36.0778     0.2831 O.2     
 128 N128         -36.7222   -34.6644    -1.2369 N.am    
 129 C129         -36.7653   -36.1072    -1.4874 C.3     
 130 C130         -35.3703   -36.7019    -1.2849 C.3     
 131 C131         -34.4364   -36.1617    -2.3371 C.2     
 132 O132         -34.8672   -35.4610    -3.2284 O.2     
 133 N133         -33.1223   -36.4571    -2.2876 N.am    
 134 C134         -38.3865   -38.9157     1.6608 C.2     
 135 O135         -37.2450   -38.5872     1.9054 O.2     
 136 N136         -37.9353   -38.0863    -0.5748 N.am    
 137 C137         -38.9531   -38.7012     0.2809 C.3     
 138 C138         -39.3731   -40.0473    -0.3129 C.3     
 139 C139         -40.0407   -39.8223    -1.6451 C.2     
 140 O140         -40.2555   -38.6934    -2.0327 O.2     
 141 N141         -40.3991   -40.8757    -2.4056 N.am    
 142 C142         -39.3370   -40.8060     4.6418 C.2     
 143 O143         -40.2356   -41.3773     4.0612 O.2     
 144 N144         -39.1484   -39.4725     2.6230 N.am    
 145 C145         -38.5977   -39.6810     3.9644 C.3     
 146 C146         -38.7557   -38.3996     4.7854 C.3     
 147 C147         -37.9173   -37.3058     4.1758 C.2     
 148 C148         -38.3579   -36.0935     3.7887 C.2     
 149 N149         -37.2750   -35.4179     3.2941 N.pl3   
 150 C150         -36.2097   -36.2415     3.3962 C.2     
 151 N151         -36.6003   -37.3669     3.9290 N.2     
 152 C152         -39.6227   -42.1066     8.0461 C.2     
 153 O153         -39.0140   -41.1684     8.5154 O.2     
 154 N154         -38.9998   -41.1772     5.8927 N.am    
 155 C155         -39.7185   -42.2708     6.5512 C.3     
 156 C156         -39.0963   -43.6080     6.1441 C.3     
 157 C157         -39.3042   -43.8318     4.6449 C.3     
 158 C158         -38.5756   -45.1062     4.2137 C.3     
 159 C159         -40.7992   -43.9755     4.3531 C.3     
 160 C160         -40.2846   -44.1853    10.9794 C.2     
 161 O161         -40.4836   -45.1745    10.3066 O.2     
 162 N162         -40.2135   -43.0023     8.8617 N.am    
 163 C163         -40.1204   -42.8427    10.3150 C.3     
 164 C164         -41.2231   -41.8973    10.7959 C.3     
 165 C165         -41.0776   -40.5454    10.0945 C.3     
 166 O166         -42.5002   -42.4591    10.4872 O.3     
 167 C167         -41.9626   -45.7235    13.1899 C.2     
 168 O168         -42.7181   -44.8504    12.8338 O.2     
 169 N169         -40.2104   -44.2867    12.3213 N.am    
 170 C170         -40.4789   -45.5701    12.9748 C.3     
 171 C171         -39.7605   -45.6150    14.3249 C.3     
 172 C172         -38.2704   -45.5852    14.1023 C.2     
 173 C173         -37.4075   -44.7016    14.6393 C.2     
 174 N174         -36.1621   -45.0345    14.1792 N.pl3   
 175 C175         -36.3074   -46.1107    13.3764 C.2     
 176 N176         -37.5702   -46.4375    13.3392 N.2     
 177 O177         -42.4448   -46.8300    13.7771 O.3     
 178 H178          -7.5119    -5.9353   -30.0466 H       
 179 H179          -7.9434    -7.2156   -31.0163 H       
 180 H180          -9.3548    -4.6350   -30.8138 H       
 181 H181          -9.9031    -7.1478   -32.4551 H       
 182 H182         -11.0353    -5.7850   -32.2853 H       
 183 H183          -9.3350    -4.2533   -33.2400 H       
 184 H184          -8.2027    -5.6162   -33.4098 H       
 185 H185          -9.8033    -6.7577   -34.9209 H       
 186 H186         -10.9356    -5.3949   -34.7511 H       
 187 H187          -9.2352    -3.8632   -35.7058 H       
 188 H188          -8.1029    -5.2261   -35.8756 H       
 189 H189          -9.2943    -4.7986   -37.9217 H       
 190 H190          -9.7548    -6.2772   -37.3154 H       
 191 H191         -11.6085    -4.9645   -29.8216 H       
 192 H192         -11.9946    -7.4929   -28.4125 H       
 193 H193         -11.5183    -4.8637   -26.9396 H       
 194 H194         -12.1545    -6.3444   -26.1837 H       
 195 H195         -10.4322    -8.2883   -25.7033 H       
 196 H196          -7.8952    -8.4732   -25.8357 H       
 197 H197          -5.7084    -6.9672   -26.9348 H       
 198 H198          -5.2696    -4.9080   -28.1960 H       
 199 H199          -7.1216    -3.4460   -28.8850 H       
 200 H200          -9.4296    -4.0215   -28.3226 H       
 201 H201         -14.1449    -7.0444   -26.8512 H       
 202 H202         -15.8848    -5.0277   -28.0485 H       
 203 H203         -16.4133    -8.0178   -28.3486 H       
 204 H204         -17.6039    -6.7401   -28.6923 H       
 205 H205         -14.4696    -8.3196   -29.7684 H       
 206 H206         -13.5062    -8.0323   -32.0152 H       
 207 H207         -14.7509    -6.8806   -34.4880 H       
 208 H208         -16.3654    -4.9650   -32.8408 H       
 209 H209         -17.3292    -5.2652   -30.5959 H       
 210 H210         -17.7472    -5.2037   -23.9666 H       
 211 H211         -20.4367    -4.8032   -24.5619 H       
 212 H212         -19.2345    -3.4738   -24.4813 H       
 213 H213         -20.2194    -5.0058   -26.9541 H       
 214 H214         -20.0105    -3.2342   -26.7483 H       
 215 H215         -17.6082    -3.3942   -26.7835 H       
 216 H216         -18.0608    -4.6464   -27.9802 H       
 217 H217         -19.9097    -6.4277   -22.9395 H       
 218 H218         -19.4853    -9.1838   -23.3873 H       
 219 H219         -20.9271    -8.6823   -24.3027 H       
 220 H220         -21.6523   -10.4403   -22.3932 H       
 221 H221         -22.0696    -9.0786   -19.8439 H       
 222 H222         -24.4089    -9.8273   -21.6561 H       
 223 H223         -24.5402    -9.2395   -19.9811 H       
 224 H224         -25.1581    -7.1790   -21.6984 H       
 225 H225         -23.7355   -10.7150   -18.4987 H       
 226 H226         -23.3798   -13.4824   -19.3607 H       
 227 H227         -22.0366   -12.3710   -16.8568 H       
 228 H228         -22.2059   -14.1036   -17.2280 H       
 229 H229         -20.9414   -13.7755   -19.3356 H       
 230 H230         -20.7721   -12.0429   -18.9644 H       
 231 H231         -19.5496   -12.6085   -16.8825 H       
 232 H232         -19.7189   -14.3411   -17.2538 H       
 233 H233         -18.4544   -14.0130   -19.3614 H       
 234 H234         -18.2851   -12.2805   -18.9901 H       
 235 H235         -16.3495   -13.5319   -18.2999 H       
 236 H236         -17.1307   -12.9408   -16.9559 H       
 237 H237         -24.2226   -14.9126   -17.2044 H       
 238 H238         -26.4361   -13.4626   -15.9438 H       
 239 H239         -27.3203   -14.1198   -18.1763 H       
 240 H240         -26.8956   -15.8142   -17.8345 H       
 241 H241         -28.3736   -15.7124   -15.7973 H       
 242 H242         -28.2558   -13.2262   -15.5298 H       
 243 H243         -29.2311   -13.0455   -17.0077 H       
 244 H244         -29.9311   -13.8263   -15.5695 H       
 245 H245         -29.2029   -16.6249   -17.9486 H       
 246 H246         -30.5023   -15.7867   -17.0670 H       
 247 H247         -29.7069   -14.9922   -18.4470 H       
 248 H248         -27.6066   -15.0002   -14.3235 H       
 249 H249         -26.1991   -17.5282   -13.8552 H       
 250 H250         -24.9169   -15.8057   -12.5623 H       
 251 H251         -26.4133   -15.3822   -11.6965 H       
 252 H252         -26.5946   -17.7667   -10.9344 H       
 253 H253         -23.7974   -18.0016   -12.1308 H       
 254 H254         -24.6787   -19.2659   -11.2403 H       
 255 H255         -25.2641   -18.7261   -12.8322 H       
 256 H256         -25.5184   -16.0497    -9.5053 H       
 257 H257         -24.7404   -17.6364    -9.2932 H       
 258 H258         -23.9525   -16.3841   -10.2827 H       
 259 H259         -27.4681   -18.9024   -12.2134 H       
 260 H260         -30.0189   -17.7770   -11.3447 H       
 261 H261         -29.8514   -20.1280   -13.2821 H       
 262 H262         -31.3209   -19.6491   -12.3993 H       
 263 H263         -31.2230   -17.4066   -13.4530 H       
 264 H264         -29.7535   -17.8855   -14.3358 H       
 265 H265         -32.4728   -18.5590   -16.7026 H       
 266 H266         -31.2893   -19.8580   -10.1964 H       
 267 H267         -29.3653   -21.7679    -9.1111 H       
 268 H268         -30.7178   -19.6541    -7.3758 H       
 269 H269         -29.8661   -21.0845    -6.7459 H       
 270 H270         -27.7875   -20.3456    -7.8783 H       
 271 H271         -28.6392   -18.9152    -8.5082 H       
 272 H272         -29.0982   -18.1672    -6.1890 H       
 273 H273         -28.2465   -19.5976    -5.5592 H       
 274 H274         -26.1680   -18.8587    -6.6916 H       
 275 H275         -27.0197   -17.4282    -7.3215 H       
 276 H276         -25.8156   -16.9283    -5.2993 H       
 277 H277         -27.4489   -16.8023    -5.0127 H       
 278 H278         -30.7475   -23.0641    -7.1949 H       
 279 H279         -32.9295   -24.2414    -8.5475 H       
 280 H280         -33.5657   -23.0584    -7.3796 H       
 281 H281         -34.3623   -25.5317    -6.6648 H       
 282 H282         -32.2965   -26.8639    -5.0883 H       
 283 H283         -34.6708   -25.4480    -3.7974 H       
 284 H284         -33.6092   -26.6068    -2.9616 H       
 285 H285         -31.6531   -25.1601    -3.4405 H       
 286 H286         -32.7147   -24.0013    -4.2762 H       
 287 H287         -31.4756   -22.7582    -2.2312 H       
 288 H288         -32.4400   -22.6525    -0.8595 H       
 289 H289         -33.6536   -28.7052    -3.6632 H       
 290 H290         -36.0644   -29.5371    -5.0856 H       
 291 H291         -33.4759   -31.1492    -5.1862 H       
 292 H292         -35.0722   -31.7698    -5.6711 H       
 293 H293         -35.2579   -29.9685    -7.3650 H       
 294 H294         -33.6617   -29.3478    -6.8801 H       
 295 H295         -32.9351   -31.5480    -9.7229 H       
 296 H296         -36.6503   -31.9427    -4.0723 H       
 297 H297         -35.5291   -32.1852    -1.3639 H       
 298 H298         -37.8737   -32.4007    -0.4289 H       
 299 H299         -39.6468   -31.2149    -1.8526 H       
 300 H300         -38.5238   -31.3838    -3.2232 H       
 301 H301         -38.4929   -33.8279    -2.9273 H       
 302 H302         -39.5540   -33.6863    -1.5052 H       
 303 H303         -40.1688   -33.2601    -3.1204 H       
 304 H304         -37.1334   -29.7325    -1.7131 H       
 305 H305         -38.2730   -29.9474    -0.3627 H       
 306 H306         -36.5492   -30.3323    -0.1423 H       
 307 H307         -36.7926   -34.3273    -0.3301 H       
 308 H308         -37.0925   -36.2885    -2.5112 H       
 309 H309         -34.9997   -36.4307    -0.2964 H       
 310 H310         -35.4225   -37.7874    -1.3682 H       
 311 H311         -32.7777   -37.0175    -1.5748 H       
 312 H312         -32.5212   -36.1094    -2.9649 H       
 313 H313         -37.4081   -38.6374    -1.1742 H       
 314 H314         -39.8210   -38.0446     0.3425 H       
 315 H315         -38.4924   -40.6749    -0.4492 H       
 316 H316         -40.0701   -40.5414     0.3640 H       
 317 H317         -40.2273   -41.7786    -2.0956 H       
 318 H318         -40.8289   -40.7309    -3.2631 H       
 319 H319         -40.0615   -39.7352     2.4274 H       
 320 H320         -37.5405   -39.9353     3.8877 H       
 321 H321         -39.8027   -38.0964     4.7878 H       
 322 H322         -38.4277   -38.5811     5.8090 H       
 323 H323         -39.3710   -35.7253     3.8554 H       
 324 H324         -37.2733   -34.5161     2.9369 H       
 325 H325         -35.2007   -36.0062     3.0913 H       
 326 H326         -38.2811   -40.7202     6.3571 H       
 327 H327         -40.7658   -42.2506     6.2498 H       
 328 H328         -38.0290   -43.5943     6.3649 H       
 329 H329         -39.5723   -44.4148     6.7014 H       
 330 H330         -38.9062   -42.9810     4.0919 H       
 331 H331         -38.9736   -45.9571     4.7667 H       
 332 H332         -38.7237   -45.2657     3.1456 H       
 333 H333         -37.5105   -45.0039     4.4216 H       
 334 H334         -40.9473   -44.1350     3.2851 H       
 335 H335         -41.1972   -44.8263     4.9061 H       
 336 H336         -41.3182   -43.0676     4.6603 H       
 337 H337         -40.7003   -43.7527     8.4864 H       
 338 H338         -39.1467   -42.4262    10.5731 H       
 339 H339         -41.1381   -41.7585    11.8737 H       
 340 H340         -41.2538   -40.6696     9.0260 H       
 341 H341         -41.8047   -39.8438    10.5035 H       
 342 H342         -40.0708   -40.1596    10.2543 H       
 343 H343         -42.6617   -43.3189    10.8993 H       
 344 H344         -39.9791   -43.5100    12.8543 H       
 345 H345         -40.1174   -46.3819    12.3437 H       
 346 H346         -40.0560   -44.7527    14.9226 H       
 347 H347         -40.0311   -46.5310    14.8502 H       
 348 H348         -37.6514   -43.8867    15.3048 H       
 349 H349         -35.3305   -44.5820    14.3903 H       
 350 H350         -35.5099   -46.6192    12.8550 H       
 351 H351         -43.4032   -46.8832    13.8935 H       
@<TRIPOS>BOND
   1    1    2 2
   2    1    4 1
   3    1   12 am
   4    3    4 1
   5    3  178 1
   6    3  179 1
   7    4    5 1
   8    4  180 1
   9    5    6 1
  10    5  181 1
  11    5  182 1
  12    6    7 1
  13    6  183 1
  14    6  184 1
  15    7    8 1
  16    7  185 1
  17    7  186 1
  18    8    9 1
  19    8  187 1
  20    8  188 1
  21    9  189 1
  22    9  190 1
  23   10   11 2
  24   10   13 1
  25   10   26 am
  26   12   13 1
  27   12  191 1
  28   13   14 1
  29   13  192 1
  30   14   15 1
  31   14  193 1
  32   14  194 1
  33   15   16 2
  34   15   23 1
  35   16   17 1
  36   16  195 1
  37   17   18 1
  38   17  196 1
  39   18   19 ar
  40   18   23 ar
  41   19   20 ar
  42   19  197 1
  43   20   21 ar
  44   20  198 1
  45   21   22 ar
  46   21  199 1
  47   22   23 ar
  48   22  200 1
  49   24   25 2
  50   24   27 1
  51   24   38 am
  52   26   27 1
  53   26  201 1
  54   27   28 1
  55   27  202 1
  56   28   29 1
  57   28  203 1
  58   28  204 1
  59   29   30 ar
  60   29   35 ar
  61   30   31 ar
  62   30  205 1
  63   31   32 ar
  64   31  206 1
  65   32   33 1
  66   32   34 ar
  67   33  207 1
  68   34   35 ar
  69   34  208 1
  70   35  209 1
  71   36   37 2
  72   36   45 am
  73   36   39 1
  74   38   39 1
  75   38   42 1
  76   39   40 1
  77   39  210 1
  78   40   41 1
  79   40  211 1
  80   40  212 1
  81   41   42 1
  82   41  213 1
  83   41  214 1
  84   42  215 1
  85   42  216 1
  86   43   44 2
  87   43   46 1
  88   43   49 am
  89   45   46 1
  90   45  217 1
  91   46  218 1
  92   46  219 1
  93   47   48 2
  94   47   50 1
  95   47   55 am
  96   49   50 1
  97   49  220 1
  98   50   51 1
  99   50  221 1
 100   51   52 1
 101   51  222 1
 102   51  223 1
 103   52  224 1
 104   53   54 2
 105   53   56 1
 106   53   64 am
 107   55   56 1
 108   55  225 1
 109   56   57 1
 110   56  226 1
 111   57   58 1
 112   57  227 1
 113   57  228 1
 114   58   59 1
 115   58  229 1
 116   58  230 1
 117   59   60 1
 118   59  231 1
 119   59  232 1
 120   60   61 1
 121   60  233 1
 122   60  234 1
 123   61  235 1
 124   61  236 1
 125   62   63 2
 126   62   65 1
 127   62   72 am
 128   64   65 1
 129   64  237 1
 130   65   66 1
 131   65  238 1
 132   66   67 1
 133   66  239 1
 134   66  240 1
 135   67   68 1
 136   67   69 1
 137   67  241 1
 138   68  242 1
 139   68  243 1
 140   68  244 1
 141   69  245 1
 142   69  246 1
 143   69  247 1
 144   70   71 2
 145   70   73 1
 146   70   80 am
 147   72   73 1
 148   72  248 1
 149   73   74 1
 150   73  249 1
 151   74   75 1
 152   74  250 1
 153   74  251 1
 154   75   76 1
 155   75   77 1
 156   75  252 1
 157   76  253 1
 158   76  254 1
 159   76  255 1
 160   77  256 1
 161   77  257 1
 162   77  258 1
 163   78   79 2
 164   78   81 1
 165   78   89 am
 166   80   81 1
 167   80  259 1
 168   81   82 1
 169   81  260 1
 170   82   83 1
 171   82  261 1
 172   82  262 1
 173   83   84 1
 174   83  263 1
 175   83  264 1
 176   84   85 2
 177   84   86 1
 178   86  265 1
 179   87   88 2
 180   87   90 1
 181   87   98 am
 182   89   90 1
 183   89  266 1
 184   90   91 1
 185   90  267 1
 186   91   92 1
 187   91  268 1
 188   91  269 1
 189   92   93 1
 190   92  270 1
 191   92  271 1
 192   93   94 1
 193   93  272 1
 194   93  273 1
 195   94   95 1
 196   94  274 1
 197   94  275 1
 198   95  276 1
 199   95  277 1
 200   96   97 2
 201   96   99 1
 202   96  102 am
 203   98   99 1
 204   98  278 1
 205   99  279 1
 206   99  280 1
 207  100  101 2
 208  100  103 1
 209  100  111 am
 210  102  103 1
 211  102  281 1
 212  103  104 1
 213  103  282 1
 214  104  105 1
 215  104  283 1
 216  104  284 1
 217  105  106 1
 218  105  285 1
 219  105  286 1
 220  106  107 2
 221  106  108 am
 222  108  287 1
 223  108  288 1
 224  109  110 2
 225  109  112 1
 226  109  120 am
 227  111  112 1
 228  111  289 1
 229  112  113 1
 230  112  290 1
 231  113  114 1
 232  113  291 1
 233  113  292 1
 234  114  115 1
 235  114  293 1
 236  114  294 1
 237  115  116 2
 238  115  117 1
 239  117  295 1
 240  118  119 2
 241  118  121 1
 242  118  128 am
 243  120  121 1
 244  120  296 1
 245  121  122 1
 246  121  297 1
 247  122  123 1
 248  122  125 1
 249  122  298 1
 250  123  124 1
 251  123  299 1
 252  123  300 1
 253  124  301 1
 254  124  302 1
 255  124  303 1
 256  125  304 1
 257  125  305 1
 258  125  306 1
 259  126  127 2
 260  126  129 1
 261  126  136 am
 262  128  129 1
 263  128  307 1
 264  129  130 1
 265  129  308 1
 266  130  131 1
 267  130  309 1
 268  130  310 1
 269  131  132 2
 270  131  133 am
 271  133  311 1
 272  133  312 1
 273  134  135 2
 274  134  137 1
 275  134  144 am
 276  136  137 1
 277  136  313 1
 278  137  138 1
 279  137  314 1
 280  138  139 1
 281  138  315 1
 282  138  316 1
 283  139  140 2
 284  139  141 am
 285  141  317 1
 286  141  318 1
 287  142  143 2
 288  142  145 1
 289  142  154 am
 290  144  145 1
 291  144  319 1
 292  145  146 1
 293  145  320 1
 294  146  147 1
 295  146  321 1
 296  146  322 1
 297  147  148 2
 298  147  151 1
 299  148  149 1
 300  148  323 1
 301  149  150 1
 302  149  324 1
 303  150  151 2
 304  150  325 1
 305  152  153 2
 306  152  155 1
 307  152  162 am
 308  154  155 1
 309  154  326 1
 310  155  156 1
 311  155  327 1
 312  156  157 1
 313  156  328 1
 314  156  329 1
 315  157  158 1
 316  157  159 1
 317  157  330 1
 318  158  331 1
 319  158  332 1
 320  158  333 1
 321  159  334 1
 322  159  335 1
 323  159  336 1
 324  160  161 2
 325  160  163 1
 326  160  169 am
 327  162  163 1
 328  162  337 1
 329  163  164 1
 330  163  338 1
 331  164  165 1
 332  164  166 1
 333  164  339 1
 334  165  340 1
 335  165  341 1
 336  165  342 1
 337  166  343 1
 338  167  168 2
 339  167  170 1
 340  167  177 1
 341  169  170 1
 342  169  344 1
 343  170  171 1
 344  170  345 1
 345  171  172 1
 346  171  346 1
 347  171  347 1
 348  172  173 2
 349  172  176 1
 350  173  174 1
 351  173  348 1
 352  174  175 1
 353  174  349 1
 354  175  176 2
 355  175  350 1
 356  177  351 1

#	End of record

