#	Name: ASD05313209
#	Creating user name:	WinNT
#	Creation time:	15. 06. 2019 20:58

#	Modifying user name:	WinNT
#	Modification time:	15. 06. 2019 20:58

#	Program:	/corina/corina34_cracker 3.40 0067  02.08.2006

@<TRIPOS>MOLECULE
ASD05313209
  42   45    0    0    0
SMALL
NO_CHARGES


@<TRIPOS>ATOM
   1 C1            -0.6961     1.7170    -1.6582 C.ar    
   2 C2            -0.8579     0.4017    -2.1095 C.ar    
   3 C3             0.2699    -0.3864    -2.3025 C.ar    
   4 C4             1.5146     0.1649    -2.0389 C.ar    
   5 C5             1.5993     1.4726    -1.5951 C.ar    
   6 N6             0.5167     2.2015    -1.4191 N.ar    
   7 O7            -2.0976    -0.0962    -2.3543 O.3     
   8 C8            -3.1897     4.2463    -0.9901 C.2     
   9 C9            -3.6504     5.6228    -0.5735 C.3     
  10 N10           -1.8874     3.8653    -1.0205 N.pl3   
  11 N11           -2.4834     6.3075     0.0143 N.am    
  12 C12           -1.1872     6.1776    -0.6685 C.3     
  13 C13           -0.7516     4.7074    -0.6494 C.3     
  14 N14           -3.1409     2.2366    -1.6546 N.2     
  15 N15           -3.9071     3.2353    -1.3781 N.2     
  16 C16           -1.8829     2.5738    -1.4524 C.2     
  17 C17           -2.6017     7.0319     1.1446 C.2     
  18 O18           -1.6129     7.5067     1.6685 O.2     
  19 C19           -3.9335     7.2489     1.7471 C.ar    
  20 C20           -4.1102     7.1142     3.1266 C.ar    
  21 C21           -5.3580     7.3186     3.6823 C.ar    
  22 C22           -6.4303     7.6552     2.8762 C.ar    
  23 C23           -6.2615     7.7896     1.5093 C.ar    
  24 C24           -5.0196     7.5949     0.9415 C.ar    
  25 C25           -5.5516     7.1741     5.1698 C.3     
  26 F26           -6.8891     7.4274     5.4928 F       
  27 F27           -5.2162     5.8730     5.5595 F       
  28 F28           -4.7294     8.0876     5.8380 F       
  29 Cl29          -2.7652     6.6906     4.1392 Cl      
  30 H30            0.1793    -1.4051    -2.6495 H       
  31 H31            2.4105    -0.4217    -2.1787 H       
  32 H32            2.5685     1.9023    -1.3894 H       
  33 H33           -2.4041     0.0401    -3.2613 H       
  34 H34           -4.0065     6.1749    -1.4433 H       
  35 H35           -4.4456     5.5406     0.1674 H       
  36 H36           -1.2837     6.5154    -1.7003 H       
  37 H37           -0.4423     6.7847    -0.1540 H       
  38 H38           -0.4121     4.4407     0.3515 H       
  39 H39            0.0600     4.5590    -1.3617 H       
  40 H40           -7.4041     7.8136     3.3156 H       
  41 H41           -7.1036     8.0519     0.8859 H       
  42 H42           -4.8888     7.7053    -0.1249 H       
@<TRIPOS>BOND
   1    1    2 ar
   2    1    6 ar
   3    1   16 1
   4    2    3 ar
   5    2    7 1
   6    3    4 ar
   7    3   30 1
   8    4    5 ar
   9    4   31 1
  10    5    6 ar
  11    5   32 1
  12    7   33 1
  13    8    9 1
  14    8   10 1
  15    8   15 2
  16    9   11 1
  17    9   34 1
  18    9   35 1
  19   10   13 1
  20   10   16 1
  21   11   12 1
  22   11   17 am
  23   12   13 1
  24   12   36 1
  25   12   37 1
  26   13   38 1
  27   13   39 1
  28   14   15 1
  29   14   16 2
  30   17   18 2
  31   17   19 1
  32   19   20 ar
  33   19   24 ar
  34   20   21 ar
  35   20   29 1
  36   21   22 ar
  37   21   25 1
  38   22   23 ar
  39   22   40 1
  40   23   24 ar
  41   23   41 1
  42   24   42 1
  43   25   26 1
  44   25   27 1
  45   25   28 1

#	End of record

