#	Name: ASD06590008
#	Creating user name:	WinNT
#	Creation time:	15. 06. 2019 21:06

#	Modifying user name:	WinNT
#	Modification time:	15. 06. 2019 21:06

#	Program:	/corina/corina34_cracker 3.40 0067  02.08.2006

@<TRIPOS>MOLECULE
ASD06590008
 436  444    0    0    0
SMALL
NO_CHARGES


@<TRIPOS>ATOM
   1 C1             3.5533     8.3936    21.5843 C.2     
   2 O2             3.3599     7.2192    21.8172 O.2     
   3 N3             5.6377     8.0841    22.7879 N.am    
   4 C4             4.8153     9.0600    22.0685 C.3     
   5 C5             5.5978     9.6019    20.8706 C.3     
   6 C6             6.8138    10.3858    21.3682 C.3     
   7 C7             7.6637    10.8215    20.1729 C.3     
   8 C8             6.3438    11.6221    22.1373 C.3     
   9 C9             0.8916     9.1927    19.2095 C.2     
  10 O10            1.4807    10.1668    18.7913 O.2     
  11 N11            2.6422     9.1014    20.8876 N.am    
  12 C12            1.4182     8.4521    20.4117 C.3     
  13 C13            0.3664     8.4700    21.5227 C.3     
  14 C14            0.8416     7.6269    22.6779 C.ar    
  15 C15            1.5868     8.2015    23.6910 C.ar    
  16 C16            2.0240     7.4308    24.7508 C.ar    
  17 C17            1.7143     6.0793    24.7983 C.ar    
  18 O18            2.1429     5.3190    25.8401 O.3     
  19 C19            0.9661     5.5052    23.7808 C.ar    
  20 C20            0.5269     6.2814    22.7258 C.ar    
  21 C21           -2.2983     9.3430    17.4578 C.2     
  22 O22           -2.7920     8.3881    18.0195 O.2     
  23 N23           -0.2340     8.7724    18.5989 N.am    
  24 C24           -0.8067     9.5537    17.5000 C.3     
  25 C25           -0.1899     9.0993    16.1756 C.3     
  26 C26           -0.6836    10.0051    15.0457 C.3     
  27 C27           -0.1604    11.4259    15.2655 C.3     
  28 C28           -0.1706     9.4743    13.7055 C.3     
  29 C29           -5.0506    10.6638    15.4469 C.2     
  30 O30           -4.3026    11.3193    14.7528 O.2     
  31 N31           -3.0838    10.2156    16.7960 N.am    
  32 C32           -4.5200     9.9568    16.6674 C.3     
  33 C33           -5.2447    10.4739    17.9117 C.3     
  34 C34           -4.8031     9.6822    19.1156 C.2     
  35 C35           -4.2900    10.1905    20.2522 C.2     
  36 N36           -4.0279     9.1302    21.0773 N.pl3   
  37 C37           -4.3904     8.0101    20.4157 C.2     
  38 N38           -4.8578     8.3483    19.2451 N.2     
  39 C39           -8.3449    11.5217    14.1148 C.2     
  40 O40           -8.9083    11.1722    15.1303 O.2     
  41 N41           -6.3562    10.5676    15.1267 N.am    
  42 C42           -6.8720    11.2549    13.9402 C.3     
  43 C43           -6.6556    10.3755    12.7071 C.3     
  44 O44           -7.4398     9.1868    12.8262 O.3     
  45 C45          -11.1206    12.6893    12.0237 C.2     
  46 O46          -10.4571    12.8472    11.0208 O.2     
  47 N47           -9.0360    12.1488    13.1424 N.am    
  48 C48          -10.4406    12.5063    13.3560 C.3     
  49 C49          -10.5195    13.8104    14.1522 C.3     
  50 C50          -11.9748    14.0871    14.5348 C.3     
  51 C51          -12.4555    13.0188    15.5189 C.3     
  52 C52          -12.0767    15.4663    15.1894 C.3     
  53 C53          -14.5089    13.3243    10.8074 C.2     
  54 O54          -14.9049    13.6415    11.9090 O.2     
  55 N55          -12.4661    12.6774    11.9466 N.am    
  56 C56          -13.1256    12.7501    10.6404 C.3     
  57 C57          -13.2252    11.3461    10.0405 C.3     
  58 C58          -14.0404    10.4492    10.9742 C.3     
  59 C59          -14.2460     9.0826    10.3177 C.3     
  60 C60          -11.8208    10.7632     9.8710 C.3     
  61 C61          -17.5287    13.5762     8.7628 C.2     
  62 O62          -17.0757    12.8486     7.9047 O.2     
  63 N63          -15.3060    13.4853     9.7327 N.am    
  64 C64          -16.6507    14.0435     9.8950 C.3     
  65 C65          -16.5735    15.5715     9.8834 C.3     
  66 C66          -15.7977    16.0444    11.0856 C.ar    
  67 C67          -14.4271    16.2052    11.0044 C.ar    
  68 C68          -13.7155    16.6390    12.1072 C.ar    
  69 C69          -14.3745    16.9124    13.2912 C.ar    
  70 C70          -15.7451    16.7525    13.3722 C.ar    
  71 C71          -16.4573    16.3228    12.2681 C.ar    
  72 C72          -20.7913    14.4989     7.3964 C.2     
  73 O73          -20.8694    15.4841     8.0993 O.2     
  74 N74          -18.8172    13.9669     8.7037 N.am    
  75 C75          -19.6706    13.5127     7.6030 C.3     
  76 C76          -20.2552    12.1404     7.9437 C.3     
  77 C77          -19.1255    11.1122     8.0309 C.3     
  78 S78          -19.8186     9.4853     8.4348 S.3     
  79 C79          -18.3516     8.4199     8.4933 C.3     
  80 C80          -23.9670    14.5470     5.5866 C.2     
  81 O81          -23.8983    13.3653     5.3221 O.2     
  82 N82          -21.7067    14.2859     6.4304 N.am    
  83 C83          -22.7962    15.2446     6.2296 C.3     
  84 C84          -22.3166    16.3786     5.3213 C.3     
  85 C85          -27.0628    15.5642     3.9299 C.2     
  86 O86          -26.7384    16.7327     3.9184 O.2     
  87 N87          -25.0906    15.2362     5.3054 N.am    
  88 C88          -26.2288    14.5580     4.6803 C.3     
  89 C89          -27.0827    13.8928     5.7616 C.3     
  90 C90          -26.2865    12.8017     6.4300 C.ar    
  91 C91          -25.5165    13.0897     7.5412 C.ar    
  92 C92          -24.7861    12.0889     8.1543 C.ar    
  93 C93          -24.8261    10.8000     7.6563 C.ar    
  94 C94          -25.5969    10.5118     6.5456 C.ar    
  95 C95          -26.3307    11.5117     5.9351 C.ar    
  96 C96          -30.3954    15.6388     2.4295 C.2     
  97 O97          -30.6973    14.5674     2.9111 O.2     
  98 N98          -28.1692    15.1655     3.2716 N.am    
  99 C99          -28.9800    16.1436     2.5421 C.3     
 100 C100         -28.3977    16.3458     1.1418 C.3     
 101 C101         -27.0284    16.9656     1.2518 C.ar    
 102 C102         -25.9102    16.1587     1.3486 C.ar    
 103 C103         -24.6542    16.7272     1.4496 C.ar    
 104 C104         -24.5165    18.1027     1.4533 C.ar    
 105 C105         -25.6346    18.9096     1.3556 C.ar    
 106 C106         -26.8902    18.3410     1.2502 C.ar    
 107 C107         -33.3639    16.5117     0.4829 C.2     
 108 O108         -32.7471    17.2902    -0.2131 O.2     
 109 N109         -31.3259    16.3779     1.7935 N.am    
 110 C110         -32.7019    15.8871     1.6840 C.3     
 111 C111         -33.4792    16.2621     2.9474 C.3     
 112 O112         -33.5907    17.6842     3.0335 O.3     
 113 C113         -36.7783    16.8303    -0.7833 C.2     
 114 O114         -37.2578    16.3801     0.2357 O.2     
 115 N115         -34.6415    16.2053     0.1822 N.am    
 116 C116         -35.2850    16.8125    -0.9854 C.3     
 117 C117         -34.9492    15.9961    -2.2350 C.3     
 118 C118         -33.4467    16.0810    -2.5111 C.3     
 119 C119         -33.1159    15.2768    -3.7420 C.2     
 120 O120         -33.9920    14.6954    -4.3372 O.2     
 121 O121         -31.8480    15.2064    -4.1770 O.3     
 122 C122         -39.7207    17.3900    -2.8790 C.2     
 123 O123         -39.0632    17.3938    -3.8981 O.2     
 124 N124         -37.5810    17.3465    -1.7350 N.am    
 125 C125         -39.0327    17.3639    -1.5385 C.3     
 126 C126         -39.4244    18.6087    -0.7398 C.3     
 127 C127         -38.8268    18.5216     0.6659 C.3     
 128 C128         -39.2185    19.7664     1.4647 C.3     
 129 C129         -38.6208    19.6793     2.8704 C.3     
 130 N130         -38.9970    20.8745     3.6373 N.3     
 131 C131         -43.1023    18.0520    -4.0997 C.2     
 132 O132         -43.4803    18.4332    -3.0122 O.2     
 133 N133         -41.0667    17.4092    -2.9454 N.am    
 134 C134         -41.7356    17.4347    -4.2485 C.3     
 135 C135         -41.8762    16.0059    -4.7776 C.3     
 136 C136         -40.4875    15.4228    -5.0467 C.3     
 137 C137         -40.6281    13.9941    -5.5758 C.3     
 138 C138         -39.2394    13.4109    -5.8449 C.3     
 139 N139         -39.3744    12.0392    -6.3529 N.3     
 140 C140         -46.1324    18.2811    -6.1317 C.2     
 141 O141         -45.7056    17.5007    -6.9561 O.2     
 142 N142         -43.9044    18.1805    -5.1752 N.am    
 143 C143         -45.2330    18.7806    -5.0305 C.3     
 144 C144         -45.1169    20.3037    -5.1182 C.3     
 145 C145         -44.3188    20.8149    -3.9466 C.ar    
 146 C146         -42.9451    20.9356    -4.0473 C.ar    
 147 C147         -42.2112    21.4035    -2.9745 C.ar    
 148 C148         -42.8537    21.7530    -1.7957 C.ar    
 149 O149         -42.1339    22.2141    -0.7391 O.3     
 150 C150         -44.2321    21.6315    -1.6973 C.ar    
 151 C151         -44.9621    21.1679    -2.7747 C.ar    
 152 C152         -49.4719    19.0740    -7.4263 C.2     
 153 O153         -49.6638    19.9928    -6.6582 O.2     
 154 N154         -47.4110    18.7017    -6.2003 N.am    
 155 C155         -48.3164    18.1331    -7.2019 C.3     
 156 C156         -48.8448    16.7858    -6.7054 C.3     
 157 C157         -49.7160    16.1487    -7.7898 C.3     
 158 C158         -48.8461    15.7855    -8.9949 C.3     
 159 C159         -50.3749    14.8835    -7.2366 C.3     
 160 C160         -52.4993    19.0634    -9.4753 C.2     
 161 O161         -52.3072    17.9268    -9.8525 O.2     
 162 N162         -50.2922    18.8945    -8.4805 N.am    
 163 C163         -51.4447    19.7788    -8.6708 C.3     
 164 C164         -51.0025    21.0396    -9.4163 C.3     
 165 C165         -50.0395    21.8188    -8.5582 C.2     
 166 C166         -50.3441    22.8391    -7.7407 C.2     
 167 N167         -49.2115    23.2974    -7.1246 N.pl3   
 168 C168         -48.1228    22.5647    -7.5413 C.ar    
 169 C169         -46.7662    22.6080    -7.2373 C.ar    
 170 C170         -45.9024    21.7158    -7.8342 C.ar    
 171 C171         -46.3718    20.7723    -8.7373 C.ar    
 172 C172         -47.7006    20.7123    -9.0508 C.ar    
 173 C173         -48.5945    21.6025    -8.4531 C.ar    
 174 C174         -55.8667    19.9007   -10.7532 C.2     
 175 O175         -55.8562    21.0197   -10.2856 O.2     
 176 N176         -53.6560    19.6866    -9.7755 N.am    
 177 C177         -54.6812    18.9912   -10.5575 C.3     
 178 C178         -59.3283    19.5255   -11.8666 C.2     
 179 O179         -59.2547    18.3149   -11.8700 O.2     
 180 N180         -56.9385    19.4707   -11.4480 N.am    
 181 C181         -58.0910    20.3549   -11.6383 C.3     
 182 C182         -57.8488    21.2543   -12.8521 C.3     
 183 C183         -56.6850    22.1705   -12.5742 C.ar    
 184 C184         -55.4011    21.7756   -12.9010 C.ar    
 185 C185         -54.3336    22.6160   -12.6461 C.ar    
 186 C186         -54.5499    23.8514   -12.0648 C.ar    
 187 C187         -55.8338    24.2466   -11.7388 C.ar    
 188 C188         -56.9018    23.4080   -11.9977 C.ar    
 189 C189         -61.8199    18.9615   -13.7486 C.2     
 190 O190         -60.9736    19.3390   -14.5239 O.2     
 191 N191         -60.5166    20.1289   -12.0670 N.am    
 192 C192         -61.7194    19.3225   -12.2889 C.3     
 193 C193         -62.9548    20.1251   -11.8759 C.3     
 194 C194         -62.7957    20.5979   -10.4296 C.3     
 195 O195         -63.0957    21.2584   -12.7348 O.3     
 196 O196         -62.8495    18.2205   -14.1874 O.3     
 197 C197           6.5200     8.5013    23.7174 C.2     
 198 O198           6.6332     9.6845    23.9582 O.2     
 199 C199          19.7427     5.4774    36.6482 C.3     
 200 C200          18.8839     6.4965    35.8968 C.3     
 201 C201          17.9746     5.7659    34.9067 C.3     
 202 C202          17.1158     6.7851    34.1553 C.3     
 203 C203          16.2065     6.0545    33.1651 C.3     
 204 C204          15.3477     7.0737    32.4138 C.3     
 205 C205          14.4384     6.3431    31.4236 C.3     
 206 C206          13.5795     7.3623    30.6722 C.3     
 207 C207          12.6703     6.6317    29.6821 C.3     
 208 C208          11.8114     7.6508    28.9307 C.3     
 209 C209          10.9022     6.9203    27.9405 C.3     
 210 C210          10.0433     7.9394    27.1892 C.3     
 211 C211           9.1341     7.2088    26.1990 C.3     
 212 C212           8.2752     8.2280    25.4476 C.3     
 213 C213           7.3660     7.4974    24.4575 C.3     
 214 H214           5.5472     7.1377    22.5953 H       
 215 H215           4.5588     9.8819    22.7368 H       
 216 H216           5.9308     8.7712    20.2483 H       
 217 H217           4.9560    10.2600    20.2850 H       
 218 H218           7.4095     9.7532    22.0262 H       
 219 H219           7.0680    11.4541    19.5148 H       
 220 H220           8.5301    11.3800    20.5273 H       
 221 H221           7.9986     9.9408    19.6249 H       
 222 H222           5.7481    12.2547    21.4793 H       
 223 H223           5.7383    11.3117    22.9889 H       
 224 H224           7.2101    12.1806    22.4918 H       
 225 H225           2.7969    10.0407    20.7013 H       
 226 H226           1.6377     7.4208    20.1357 H       
 227 H227           0.2118     9.4948    21.8602 H       
 228 H228          -0.5720     8.0676    21.1411 H       
 229 H229           1.8276     9.2536    23.6536 H       
 230 H230           2.6066     7.8798    25.5415 H       
 231 H231           1.5243     5.2846    26.5825 H       
 232 H232           0.7241     4.4533    23.8153 H       
 233 H233          -0.0593     5.8360    21.9356 H       
 234 H234          -0.6650     7.9525    18.8872 H       
 235 H235          -0.5934    10.6111    17.6562 H       
 236 H236           0.8965     9.1595    16.2412 H       
 237 H237          -0.4850     8.0701    15.9715 H       
 238 H238          -1.7735    10.0162    15.0389 H       
 239 H239           0.9279    11.4258    15.2046 H       
 240 H240          -0.5671    12.0855    14.4989 H       
 241 H241          -0.4692    11.7786    16.2495 H       
 242 H242          -0.5434     8.4621    13.5489 H       
 243 H243          -0.5223    10.1196    12.9005 H       
 244 H244           0.9193     9.4632    13.7123 H       
 245 H245          -2.6981    11.0151    16.4047 H       
 246 H246          -4.6885     8.8845    16.5681 H       
 247 H247          -5.0045    11.5265    18.0610 H       
 248 H248          -6.3207    10.3622    17.7782 H       
 249 H249          -4.1179    11.2341    20.4706 H       
 250 H250          -3.6521     9.1750    21.9704 H       
 251 H251          -4.3105     7.0018    20.7942 H       
 252 H252          -6.9544    10.0434    15.6819 H       
 253 H253          -6.3445    12.1999    13.8097 H       
 254 H254          -6.9576    10.9220    11.8136 H       
 255 H255          -5.6014    10.1092    12.6311 H       
 256 H256          -7.3518     8.5809    12.0777 H       
 257 H257          -8.6035    12.3633    12.3011 H       
 258 H258         -10.9376    11.7109    13.9114 H       
 259 H259          -9.9169    13.7213    15.0561 H       
 260 H260         -10.1415    14.6315    13.5431 H       
 261 H261         -12.5966    14.0629    13.6399 H       
 262 H262         -11.8833    13.0929    16.4437 H       
 263 H263         -13.5133    13.1715    15.7329 H       
 264 H264         -12.3123    12.0308    15.0812 H       
 265 H265         -11.7343    16.2274    14.4883 H       
 266 H266         -13.1135    15.6634    15.4619 H       
 267 H267         -11.4549    15.4906    16.0843 H       
 268 H268         -12.9978    12.6207    12.7559 H       
 269 H269         -12.5449    13.3891     9.9752 H       
 270 H270         -13.7159    11.4003     9.0687 H       
 271 H271         -13.5056    10.3233    11.9156 H       
 272 H272         -15.0096    10.9097    11.1658 H       
 273 H273         -14.7809     9.2086     9.3763 H       
 274 H274         -13.2768     8.6221    10.1261 H       
 275 H275         -14.8268     8.4436    10.9829 H       
 276 H276         -11.3301    10.7091    10.8428 H       
 277 H277         -11.8918     9.7630     9.4436 H       
 278 H278         -11.2401    11.4022     9.2058 H       
 279 H279         -14.9893    13.2316     8.8516 H       
 280 H280         -17.0713    13.7081    10.8431 H       
 281 H281         -16.0722    15.9030     8.9740 H       
 282 H282         -17.5809    15.9864     9.9148 H       
 283 H283         -13.9123    15.9916    10.0793 H       
 284 H284         -12.6446    16.7639    12.0439 H       
 285 H285         -13.8184    17.2506    14.1531 H       
 286 H286         -16.2600    16.9658    14.2974 H       
 287 H287         -17.5287    16.2014    12.3303 H       
 288 H288         -19.1795    14.5489     9.3900 H       
 289 H289         -19.0786    13.4391     6.6907 H       
 290 H290         -20.7727    12.1936     8.9015 H       
 291 H291         -20.9589    11.8421     7.1666 H       
 292 H292         -18.6080    11.0591     7.0730 H       
 293 H293         -18.4219    11.4106     8.8080 H       
 294 H294         -18.6525     7.3999     8.7322 H       
 295 H295         -17.8534     8.4341     7.5239 H       
 296 H296         -17.6672     8.7856     9.2589 H       
 297 H297         -21.6443    13.4980     5.8682 H       
 298 H298         -23.1015    15.6546     7.1923 H       
 299 H299         -22.0113    15.9686     4.3586 H       
 300 H300         -23.1272    17.0919     5.1718 H       
 301 H301         -21.4698    16.8832     5.7863 H       
 302 H302         -25.1456    16.1812     5.5169 H       
 303 H303         -25.8641    13.7995     3.9876 H       
 304 H304         -27.3738    14.6366     6.5034 H       
 305 H305         -27.9759    13.4643     5.3068 H       
 306 H306         -25.4852    14.0967     7.9303 H       
 307 H307         -24.1839    12.3141     9.0221 H       
 308 H308         -24.2550    10.0182     8.1348 H       
 309 H309         -25.6280     9.5049     6.1563 H       
 310 H310         -26.9358    11.2858     5.0696 H       
 311 H311         -28.4287    14.2309     3.2808 H       
 312 H312         -28.9743    17.0925     3.0785 H       
 313 H313         -28.3210    15.3824     0.6376 H       
 314 H314         -29.0498    17.0048     0.5688 H       
 315 H315         -26.0179    15.0841     1.3457 H       
 316 H316         -23.7807    16.0968     1.5259 H       
 317 H317         -23.5353    18.5469     1.5329 H       
 318 H318         -25.5270    19.9842     1.3588 H       
 319 H319         -27.7635    18.9714     1.1702 H       
 320 H320         -31.0845    17.2347     1.4083 H       
 321 H321         -32.6931    14.8030     1.5712 H       
 322 H322         -34.4752    15.8214     2.9054 H       
 323 H323         -32.9518    15.8853     3.8237 H       
 324 H324         -34.0730    17.9944     3.8121 H       
 325 H325         -35.1348    15.5827     0.7389 H       
 326 H326         -34.9231    17.8331    -1.1100 H       
 327 H327         -35.2311    14.9553    -2.0756 H       
 328 H328         -35.4985    16.3947    -3.0879 H       
 329 H329         -33.1649    17.1218    -2.6705 H       
 330 H330         -32.8974    15.6824    -1.6582 H       
 331 H331         -31.6849    14.6786    -4.9706 H       
 332 H332         -37.1976    17.7066    -2.5500 H       
 333 H333         -39.3360    16.4710    -0.9918 H       
 334 H334         -39.0432    19.4976    -1.2423 H       
 335 H335         -40.5105    18.6685    -0.6698 H       
 336 H336         -39.2080    17.6326     1.1684 H       
 337 H337         -37.7407    18.4618     0.5959 H       
 338 H338         -38.8373    20.6554     0.9622 H       
 339 H339         -40.3046    19.8262     1.5347 H       
 340 H340         -39.0020    18.7904     3.3729 H       
 341 H341         -37.5347    19.6195     2.8004 H       
 342 H342         -38.6140    20.8409     4.5702 H       
 343 H343         -38.7110    21.7157     3.1591 H       
 344 H344         -41.5926    17.4062    -2.1303 H       
 345 H345         -41.1446    18.0249    -4.9488 H       
 346 H346         -42.3903    15.3932    -4.0371 H       
 347 H347         -42.4515    16.0163    -5.7033 H       
 348 H348         -39.9734    16.0355    -5.7872 H       
 349 H349         -39.9121    15.4125    -4.1210 H       
 350 H350         -41.1422    13.3814    -4.8353 H       
 351 H351         -41.2034    14.0044    -6.5015 H       
 352 H352         -38.7253    14.0237    -6.5854 H       
 353 H353         -38.6640    13.4006    -4.9192 H       
 354 H354         -38.4702    11.6317    -6.5385 H       
 355 H355         -39.9043    11.4670    -5.7127 H       
 356 H356         -43.6020    17.8756    -6.0449 H       
 357 H357         -45.6536    18.5033    -4.0639 H       
 358 H358         -44.6153    20.5770    -6.0465 H       
 359 H359         -46.1131    20.7456    -5.0998 H       
 360 H360         -42.4454    20.6634    -4.9652 H       
 361 H361         -41.1381    21.4969    -3.0534 H       
 362 H362         -42.0200    23.1743    -0.7299 H       
 363 H363         -44.7346    21.9026    -0.7806 H       
 364 H364         -46.0357    21.0773    -2.7001 H       
 365 H365         -47.7318    19.3808    -5.5865 H       
 366 H366         -47.7778    17.9892    -8.1386 H       
 367 H367         -48.0059    16.1273    -6.4799 H       
 368 H368         -49.4394    16.9383    -5.8047 H       
 369 H369         -50.4870    16.8549    -8.0979 H       
 370 H370         -49.4455    15.2414    -9.7249 H       
 371 H371         -48.4576    16.6964    -9.4503 H       
 372 H372         -48.0155    15.1599    -8.6681 H       
 373 H373         -50.9947    15.1422    -6.3781 H       
 374 H374         -50.9956    14.4296    -8.0092 H       
 375 H375         -49.6039    14.1773    -6.9286 H       
 376 H376         -50.1195    18.1799    -9.1133 H       
 377 H377         -51.8543    20.0558    -7.6995 H       
 378 H378         -50.5125    20.7576   -10.3483 H       
 379 H379         -51.8741    21.6561    -9.6362 H       
 380 H380         -51.3361    23.2391    -7.5916 H       
 381 H381         -49.1803    24.0295    -6.4891 H       
 382 H382         -46.3912    23.3388    -6.5360 H       
 383 H383         -44.8493    21.7513    -7.5971 H       
 384 H384         -45.6814    20.0802    -9.1964 H       
 385 H385         -48.0586    19.9757    -9.7548 H       
 386 H386         -53.8096    20.5956    -9.4738 H       
 387 H387         -54.9962    18.0929   -10.0264 H       
 388 H388         -54.2715    18.7141   -11.5288 H       
 389 H389         -56.9469    18.5758   -11.8220 H       
 390 H390         -58.2261    20.9720   -10.7500 H       
 391 H391         -57.6258    20.6375   -13.7227 H       
 392 H392         -58.7410    21.8493   -13.0473 H       
 393 H393         -55.2322    20.8105   -13.3552 H       
 394 H394         -53.3305    22.3072   -12.9008 H       
 395 H395         -53.7157    24.5076   -11.8650 H       
 396 H396         -56.0027    25.2116   -11.2843 H       
 397 H397         -57.9053    23.7183   -11.7464 H       
 398 H398         -60.5755    21.0971   -12.0643 H       
 399 H399         -61.6616    18.4120   -11.6926 H       
 400 H400         -63.8409    19.4954   -11.9569 H       
 401 H401         -61.9096    21.2276   -10.3486 H       
 402 H402         -63.6758    21.1697   -10.1353 H       
 403 H403         -62.6883    19.7335    -9.7744 H       
 404 H404         -62.3420    21.8639   -12.7139 H       
 405 H405         -62.8710    18.0144   -15.1319 H       
 406 H406          19.0965     4.7867    37.1898 H       
 407 H407          20.3531     4.9215    35.9364 H       
 408 H408          20.3905     5.9979    37.3536 H       
 409 H409          18.2735     7.0524    36.6086 H       
 410 H410          19.5301     7.1873    35.3552 H       
 411 H411          18.5850     5.2101    34.1949 H       
 412 H412          17.3284     5.0752    35.4483 H       
 413 H413          16.5054     7.3410    34.8671 H       
 414 H414          17.7620     7.4758    33.6136 H       
 415 H415          16.8169     5.4987    32.4534 H       
 416 H416          15.5603     5.3638    33.7068 H       
 417 H417          14.7373     7.6295    33.1255 H       
 418 H418          15.9939     7.7644    31.8721 H       
 419 H419          15.0488     5.7873    30.7118 H       
 420 H420          13.7922     5.6524    31.9652 H       
 421 H421          12.9692     7.9181    31.3840 H       
 422 H422          14.2258     8.0530    30.1306 H       
 423 H423          13.2807     6.0758    28.9703 H       
 424 H424          12.0241     5.9410    30.2237 H       
 425 H425          11.2011     8.2067    29.6425 H       
 426 H426          12.4577     8.3416    28.3891 H       
 427 H427          11.5126     6.3644    27.2288 H       
 428 H428          10.2560     6.2295    28.4822 H       
 429 H429           9.4330     8.4953    27.9009 H       
 430 H430          10.6896     8.6301    26.6475 H       
 431 H431           9.7445     6.6530    25.4872 H       
 432 H432           8.4879     6.5181    26.7406 H       
 433 H433           7.6649     8.7838    26.1594 H       
 434 H434           8.9215     8.9187    24.9060 H       
 435 H435           6.7198     6.8067    24.9991 H       
 436 H436           7.9764     6.9416    23.7457 H       
@<TRIPOS>BOND
   1    1    2 2
   2    1    4 1
   3    1   11 am
   4    3  197 am
   5    3    4 1
   6    3  214 1
   7    4    5 1
   8    4  215 1
   9    5    6 1
  10    5  216 1
  11    5  217 1
  12    6    7 1
  13    6    8 1
  14    6  218 1
  15    7  219 1
  16    7  220 1
  17    7  221 1
  18    8  222 1
  19    8  223 1
  20    8  224 1
  21    9   10 2
  22    9   12 1
  23    9   23 am
  24   11   12 1
  25   11  225 1
  26   12   13 1
  27   12  226 1
  28   13   14 1
  29   13  227 1
  30   13  228 1
  31   14   15 ar
  32   14   20 ar
  33   15   16 ar
  34   15  229 1
  35   16   17 ar
  36   16  230 1
  37   17   18 1
  38   17   19 ar
  39   18  231 1
  40   19   20 ar
  41   19  232 1
  42   20  233 1
  43   21   22 2
  44   21   24 1
  45   21   31 am
  46   23   24 1
  47   23  234 1
  48   24   25 1
  49   24  235 1
  50   25   26 1
  51   25  236 1
  52   25  237 1
  53   26   27 1
  54   26   28 1
  55   26  238 1
  56   27  239 1
  57   27  240 1
  58   27  241 1
  59   28  242 1
  60   28  243 1
  61   28  244 1
  62   29   30 2
  63   29   32 1
  64   29   41 am
  65   31   32 1
  66   31  245 1
  67   32   33 1
  68   32  246 1
  69   33   34 1
  70   33  247 1
  71   33  248 1
  72   34   35 2
  73   34   38 1
  74   35   36 1
  75   35  249 1
  76   36   37 1
  77   36  250 1
  78   37   38 2
  79   37  251 1
  80   39   40 2
  81   39   42 1
  82   39   47 am
  83   41   42 1
  84   41  252 1
  85   42   43 1
  86   42  253 1
  87   43   44 1
  88   43  254 1
  89   43  255 1
  90   44  256 1
  91   45   46 2
  92   45   48 1
  93   45   55 am
  94   47   48 1
  95   47  257 1
  96   48   49 1
  97   48  258 1
  98   49   50 1
  99   49  259 1
 100   49  260 1
 101   50   51 1
 102   50   52 1
 103   50  261 1
 104   51  262 1
 105   51  263 1
 106   51  264 1
 107   52  265 1
 108   52  266 1
 109   52  267 1
 110   53   54 2
 111   53   56 1
 112   53   63 am
 113   55   56 1
 114   55  268 1
 115   56   57 1
 116   56  269 1
 117   57   58 1
 118   57   60 1
 119   57  270 1
 120   58   59 1
 121   58  271 1
 122   58  272 1
 123   59  273 1
 124   59  274 1
 125   59  275 1
 126   60  276 1
 127   60  277 1
 128   60  278 1
 129   61   62 2
 130   61   64 1
 131   61   74 am
 132   63   64 1
 133   63  279 1
 134   64   65 1
 135   64  280 1
 136   65   66 1
 137   65  281 1
 138   65  282 1
 139   66   67 ar
 140   66   71 ar
 141   67   68 ar
 142   67  283 1
 143   68   69 ar
 144   68  284 1
 145   69   70 ar
 146   69  285 1
 147   70   71 ar
 148   70  286 1
 149   71  287 1
 150   72   73 2
 151   72   75 1
 152   72   82 am
 153   74   75 1
 154   74  288 1
 155   75   76 1
 156   75  289 1
 157   76   77 1
 158   76  290 1
 159   76  291 1
 160   77   78 1
 161   77  292 1
 162   77  293 1
 163   78   79 1
 164   79  294 1
 165   79  295 1
 166   79  296 1
 167   80   81 2
 168   80   83 1
 169   80   87 am
 170   82   83 1
 171   82  297 1
 172   83   84 1
 173   83  298 1
 174   84  299 1
 175   84  300 1
 176   84  301 1
 177   85   86 2
 178   85   88 1
 179   85   98 am
 180   87   88 1
 181   87  302 1
 182   88   89 1
 183   88  303 1
 184   89   90 1
 185   89  304 1
 186   89  305 1
 187   90   91 ar
 188   90   95 ar
 189   91   92 ar
 190   91  306 1
 191   92   93 ar
 192   92  307 1
 193   93   94 ar
 194   93  308 1
 195   94   95 ar
 196   94  309 1
 197   95  310 1
 198   96   97 2
 199   96   99 1
 200   96  109 am
 201   98   99 1
 202   98  311 1
 203   99  100 1
 204   99  312 1
 205  100  101 1
 206  100  313 1
 207  100  314 1
 208  101  102 ar
 209  101  106 ar
 210  102  103 ar
 211  102  315 1
 212  103  104 ar
 213  103  316 1
 214  104  105 ar
 215  104  317 1
 216  105  106 ar
 217  105  318 1
 218  106  319 1
 219  107  108 2
 220  107  110 1
 221  107  115 am
 222  109  110 1
 223  109  320 1
 224  110  111 1
 225  110  321 1
 226  111  112 1
 227  111  322 1
 228  111  323 1
 229  112  324 1
 230  113  114 2
 231  113  116 1
 232  113  124 am
 233  115  116 1
 234  115  325 1
 235  116  117 1
 236  116  326 1
 237  117  118 1
 238  117  327 1
 239  117  328 1
 240  118  119 1
 241  118  329 1
 242  118  330 1
 243  119  120 2
 244  119  121 1
 245  121  331 1
 246  122  123 2
 247  122  125 1
 248  122  133 am
 249  124  125 1
 250  124  332 1
 251  125  126 1
 252  125  333 1
 253  126  127 1
 254  126  334 1
 255  126  335 1
 256  127  128 1
 257  127  336 1
 258  127  337 1
 259  128  129 1
 260  128  338 1
 261  128  339 1
 262  129  130 1
 263  129  340 1
 264  129  341 1
 265  130  342 1
 266  130  343 1
 267  131  132 2
 268  131  134 1
 269  131  142 am
 270  133  134 1
 271  133  344 1
 272  134  135 1
 273  134  345 1
 274  135  136 1
 275  135  346 1
 276  135  347 1
 277  136  137 1
 278  136  348 1
 279  136  349 1
 280  137  138 1
 281  137  350 1
 282  137  351 1
 283  138  139 1
 284  138  352 1
 285  138  353 1
 286  139  354 1
 287  139  355 1
 288  140  141 2
 289  140  143 1
 290  140  154 am
 291  142  143 1
 292  142  356 1
 293  143  144 1
 294  143  357 1
 295  144  145 1
 296  144  358 1
 297  144  359 1
 298  145  146 ar
 299  145  151 ar
 300  146  147 ar
 301  146  360 1
 302  147  148 ar
 303  147  361 1
 304  148  149 1
 305  148  150 ar
 306  149  362 1
 307  150  151 ar
 308  150  363 1
 309  151  364 1
 310  152  153 2
 311  152  155 1
 312  152  162 am
 313  154  155 1
 314  154  365 1
 315  155  156 1
 316  155  366 1
 317  156  157 1
 318  156  367 1
 319  156  368 1
 320  157  158 1
 321  157  159 1
 322  157  369 1
 323  158  370 1
 324  158  371 1
 325  158  372 1
 326  159  373 1
 327  159  374 1
 328  159  375 1
 329  160  161 2
 330  160  163 1
 331  160  176 am
 332  162  163 1
 333  162  376 1
 334  163  164 1
 335  163  377 1
 336  164  165 1
 337  164  378 1
 338  164  379 1
 339  165  166 2
 340  165  173 1
 341  166  167 1
 342  166  380 1
 343  167  168 1
 344  167  381 1
 345  168  169 ar
 346  168  173 ar
 347  169  170 ar
 348  169  382 1
 349  170  171 ar
 350  170  383 1
 351  171  172 ar
 352  171  384 1
 353  172  173 ar
 354  172  385 1
 355  174  175 2
 356  174  177 1
 357  174  180 am
 358  176  177 1
 359  176  386 1
 360  177  387 1
 361  177  388 1
 362  178  179 2
 363  178  181 1
 364  178  191 am
 365  180  181 1
 366  180  389 1
 367  181  182 1
 368  181  390 1
 369  182  183 1
 370  182  391 1
 371  182  392 1
 372  183  184 ar
 373  183  188 ar
 374  184  185 ar
 375  184  393 1
 376  185  186 ar
 377  185  394 1
 378  186  187 ar
 379  186  395 1
 380  187  188 ar
 381  187  396 1
 382  188  397 1
 383  189  190 2
 384  189  192 1
 385  189  196 1
 386  191  192 1
 387  191  398 1
 388  192  193 1
 389  192  399 1
 390  193  194 1
 391  193  195 1
 392  193  400 1
 393  194  401 1
 394  194  402 1
 395  194  403 1
 396  195  404 1
 397  196  405 1
 398  197  198 2
 399  197  213 1
 400  199  200 1
 401  199  406 1
 402  199  407 1
 403  199  408 1
 404  200  201 1
 405  200  409 1
 406  200  410 1
 407  201  202 1
 408  201  411 1
 409  201  412 1
 410  202  203 1
 411  202  413 1
 412  202  414 1
 413  203  204 1
 414  203  415 1
 415  203  416 1
 416  204  205 1
 417  204  417 1
 418  204  418 1
 419  205  206 1
 420  205  419 1
 421  205  420 1
 422  206  207 1
 423  206  421 1
 424  206  422 1
 425  207  208 1
 426  207  423 1
 427  207  424 1
 428  208  209 1
 429  208  425 1
 430  208  426 1
 431  209  210 1
 432  209  427 1
 433  209  428 1
 434  210  211 1
 435  210  429 1
 436  210  430 1
 437  211  212 1
 438  211  431 1
 439  211  432 1
 440  212  213 1
 441  212  433 1
 442  212  434 1
 443  213  435 1
 444  213  436 1

#	End of record

