#	Name: ASD01916162
#	Creating user name:	WinNT
#	Creation time:	15. 06. 2019 20:06

#	Modifying user name:	WinNT
#	Modification time:	15. 06. 2019 20:06

#	Program:	/corina/corina34_cracker 3.40 0067  02.08.2006

@<TRIPOS>MOLECULE
ASD01916162
  48   51    0    0    0
SMALL
NO_CHARGES


@<TRIPOS>ATOM
   1 C1             0.0778     1.3896    -0.0541 C.ar    
   2 C2             0.0830     0.0081    -0.0544 C.ar    
   3 C3             1.2877    -0.6798    -0.0525 C.ar    
   4 C4             2.4845     0.0218    -0.0504 C.ar    
   5 C5             2.4739     1.4032    -0.0500 C.ar    
   6 C6             1.2719     2.0865    -0.0519 C.ar    
   7 O7             1.2954    -2.0388    -0.0524 O.3     
   8 C8             2.5723    -2.6803    -0.0504 C.3     
   9 C9             2.3834    -4.1754    -0.0506 C.2     
  10 C10            1.1544    -4.8474    -0.0523 C.2     
  11 N11            3.3404    -5.0702    -0.0548 N.2     
  12 N12            2.7520    -6.3378    -0.0577 N.pl3   
  13 C13            1.4094    -6.1695    -0.0511 C.2     
  14 C14            3.4349    -7.6343    -0.0754 C.3     
  15 C15            2.4617    -8.7242     0.3871 C.3     
  16 N16            1.1723    -8.5445    -0.2974 N.am    
  17 C17            0.4152    -7.3064    -0.0381 C.3     
  18 C18            0.6971    -9.4825    -1.1404 C.2     
  19 C19           -0.6581    -9.3420    -1.7149 C.ar    
  20 O20            1.3826   -10.4441    -1.4285 O.2     
  21 C21           -0.9148    -9.7767    -3.0170 C.ar    
  22 C22           -3.1988    -9.0851    -2.8120 C.ar    
  23 C23           -2.9575    -8.6518    -1.5053 C.ar    
  24 C24           -1.6832    -8.7807    -0.9562 C.ar    
  25 C25           -2.1798    -9.6459    -3.5555 C.ar    
  26 C26            3.9092    -7.9427    -1.4969 C.3     
  27 H27            4.2926    -7.6032     0.5965 H       
  28 C28           -4.0155    -8.0703    -0.7351 C.1     
  29 N29           -4.8548    -7.6090    -0.1242 N.1     
  30 H30           -0.8598     1.9256    -0.0601 H       
  31 H31           -0.8501    -0.5358    -0.0558 H       
  32 H32            3.4236    -0.5115    -0.0485 H       
  33 H33            3.4053     1.9499    -0.0480 H       
  34 H34            1.2658     3.1665    -0.0516 H       
  35 H35            3.1290    -2.3844    -0.9396 H       
  36 H36            3.1263    -2.3842     0.8404 H       
  37 H37            0.1772    -4.3875    -0.0543 H       
  38 H38            2.8702    -9.7047     0.1425 H       
  39 H39            2.3156    -8.6484     1.4646 H       
  40 H40           -0.0678    -7.3632     0.9374 H       
  41 H41           -0.3331    -7.1581    -0.8167 H       
  42 H42           -0.1221   -10.2160    -3.6044 H       
  43 H43           -4.1858    -8.9860    -3.2390 H       
  44 H44           -1.4911    -8.4473     0.0529 H       
  45 H45           -2.3726    -9.9835    -4.5631 H       
  46 H46            4.5982    -7.1650    -1.8268 H       
  47 H47            4.4170    -8.9071    -1.5094 H       
  48 H48            3.0505    -7.9755    -2.1674 H       
@<TRIPOS>BOND
   1    1    2 ar
   2    1    6 ar
   3    1   30 1
   4    2    3 ar
   5    2   31 1
   6    3    4 ar
   7    3    7 1
   8    4    5 ar
   9    4   32 1
  10    5    6 ar
  11    5   33 1
  12    6   34 1
  13    7    8 1
  14    8    9 1
  15    8   35 1
  16    8   36 1
  17    9   10 1
  18    9   11 2
  19   10   13 2
  20   10   37 1
  21   11   12 1
  22   12   13 1
  23   12   14 1
  24   13   17 1
  25   14   15 1
  26   14   26 1
  27   14   27 1
  28   15   16 1
  29   15   38 1
  30   15   39 1
  31   16   17 1
  32   16   18 am
  33   17   40 1
  34   17   41 1
  35   18   19 1
  36   18   20 2
  37   19   21 ar
  38   19   24 ar
  39   21   25 ar
  40   21   42 1
  41   22   23 ar
  42   22   25 ar
  43   22   43 1
  44   23   24 ar
  45   23   28 1
  46   24   44 1
  47   25   45 1
  48   26   46 1
  49   26   47 1
  50   26   48 1
  51   28   29 3

#	End of record

