#	Name: ASD05143249
#	Creating user name:	WinNT
#	Creation time:	15. 06. 2019 20:57

#	Modifying user name:	WinNT
#	Modification time:	15. 06. 2019 20:57

#	Program:	/corina/corina34_cracker 3.40 0067  02.08.2006

@<TRIPOS>MOLECULE
ASD05143249
  48   51    0    0    0
SMALL
NO_CHARGES


@<TRIPOS>ATOM
   1 C1            -0.4732     1.5154     1.5512 C.2     
   2 N2            -0.5058     0.1980     1.5915 N.2     
   3 S3            -1.9410    -0.2513     0.8004 S.3     
   4 C4            -2.4255     1.3650     0.4545 C.2     
   5 N5            -1.4815     2.1274     0.9605 N.2     
   6 N6            -3.5674     1.7739    -0.2098 N.pl3   
   7 C7            -3.7549     3.1261    -0.5099 C.ar    
   8 C8            -5.0357     3.6637    -0.5296 C.ar    
   9 C9            -5.2174     5.0001    -0.8265 C.ar    
  10 C10           -4.1262     5.8029    -1.1044 C.ar    
  11 C11           -2.8499     5.2709    -1.0860 C.ar    
  12 C12           -2.6605     3.9368    -0.7834 C.ar    
  13 C13            0.4258    -0.6368     2.1548 C.ar    
  14 C14            0.9503    -1.7053     1.4174 C.ar    
  15 C15            0.8595    -0.4221     3.4632 C.ar    
  16 C16            1.7968    -1.2652     4.0244 C.ar    
  17 C17            2.3085    -2.3235     3.2942 C.ar    
  18 C18            1.8900    -2.5425     1.9944 C.ar    
  19 O19            0.5383    -1.9201     0.1403 O.3     
  20 C20            1.1170    -3.0292    -0.5503 C.3     
  21 C21            0.6465     2.2772     2.1499 C.ar    
  22 C22            1.9647     1.9456     1.8392 C.ar    
  23 C23            0.3868     3.3370     3.0258 C.ar    
  24 C24            1.4410     4.0440     3.5812 C.ar    
  25 C25            2.7437     3.7028     3.2706 C.ar    
  26 C26            3.0041     2.6587     2.4000 C.ar    
  27 O27           -0.8940     3.6717     3.3301 O.3     
  28 C28           -1.0850     4.8194     4.1598 C.3     
  29 H29           -4.2382     1.1224    -0.4676 H       
  30 H30           -5.8883     3.0372    -0.3134 H       
  31 H31           -6.2129     5.4187    -0.8420 H       
  32 H32           -4.2711     6.8477    -1.3366 H       
  33 H33           -1.9999     5.9004    -1.3042 H       
  34 H34           -1.6635     3.5219    -0.7693 H       
  35 H35            0.4626     0.4031     4.0359 H       
  36 H36            2.1325    -1.0983     5.0372 H       
  37 H37            3.0420    -2.9789     3.7400 H       
  38 H38            2.2935    -3.3703     1.4302 H       
  39 H39            0.7024    -3.0871    -1.5567 H       
  40 H40            2.1973    -2.8967    -0.6095 H       
  41 H41            0.8929    -3.9498    -0.0115 H       
  42 H42            2.1718     1.1313     1.1607 H       
  43 H43            1.2445     4.8629     4.2574 H       
  44 H44            3.5625     4.2566     3.7057 H       
  45 H45            4.0250     2.3984     2.1624 H       
  46 H46           -0.5995     5.6823     3.7037 H       
  47 H47           -2.1516     5.0170     4.2667 H       
  48 H48           -0.6495     4.6344     5.1417 H       
@<TRIPOS>BOND
   1    1    2 2
   2    1   21 1
   3    1    5 1
   4    2    3 1
   5    2   13 1
   6    3    4 1
   7    4    5 2
   8    4    6 1
   9    6    7 1
  10    6   29 1
  11    7    8 ar
  12    7   12 ar
  13    8    9 ar
  14    8   30 1
  15    9   10 ar
  16    9   31 1
  17   10   11 ar
  18   10   32 1
  19   11   12 ar
  20   11   33 1
  21   12   34 1
  22   13   14 ar
  23   13   15 ar
  24   14   19 1
  25   14   18 ar
  26   15   16 ar
  27   15   35 1
  28   16   17 ar
  29   16   36 1
  30   17   18 ar
  31   17   37 1
  32   18   38 1
  33   19   20 1
  34   20   39 1
  35   20   40 1
  36   20   41 1
  37   21   22 ar
  38   21   23 ar
  39   22   26 ar
  40   22   42 1
  41   23   24 ar
  42   23   27 1
  43   24   25 ar
  44   24   43 1
  45   25   26 ar
  46   25   44 1
  47   26   45 1
  48   27   28 1
  49   28   46 1
  50   28   47 1
  51   28   48 1

#	End of record

