#	Name: ASD02198554
#	Creating user name:	WinNT
#	Creation time:	15. 06. 2019 20:19

#	Modifying user name:	WinNT
#	Modification time:	15. 06. 2019 20:19

#	Program:	/corina/corina34_cracker 3.40 0067  02.08.2006

@<TRIPOS>MOLECULE
ASD02198554
  43   46    0    0    0
SMALL
NO_CHARGES


@<TRIPOS>ATOM
   1 C1             0.0071     1.5099     0.1334 C.2     
   2 C2             0.0746     0.1699    -0.0948 C.2     
   3 N3            -1.0516    -0.5604    -0.2650 N.pl3   
   4 N4            -2.2297    -0.0570    -0.2247 N.2     
   5 C5            -2.4374     1.2259    -0.0114 C.2     
   6 C6            -1.2792     2.1067     0.1921 C.2     
   7 C7            -0.9238    -1.9343    -0.4972 C.ar    
   8 C8            -1.3826    -3.8658    -1.8485 C.ar    
   9 C9            -0.6714    -4.6547    -0.9561 C.ar    
  10 C10           -0.0915    -4.0830     0.1681 C.ar    
  11 C11           -0.2168    -2.7278     0.3974 C.ar    
  12 C12           -3.8107     1.7688     0.0275 C.2     
  13 N13           -4.3736     2.4810     1.0489 N.pl3   
  14 N14           -5.6851     2.7993     0.6751 N.2     
  15 C15           -5.9146     2.3067    -0.5160 C.2     
  16 C16           -4.7631     1.6575    -0.9616 C.2     
  17 C17           -3.7506     2.8297     2.2540 C.ar    
  18 C18           -2.9574     1.9049     2.9203 C.ar    
  19 O19           -1.4173     3.3046     0.3941 O.2     
  20 C20           -3.9202     4.1029     2.7820 C.ar    
  21 C21           -3.3042     4.4438     3.9702 C.ar    
  22 C22           -2.5192     3.5189     4.6340 C.ar    
  23 C23           -2.3441     2.2520     4.1081 C.ar    
  24 C24           -1.5097    -2.5081    -1.6214 C.ar    
  25 F25           -2.2025    -1.7392    -2.4897 F       
  26 O26           -0.5468    -5.9894    -1.1799 O.3     
  27 O27            1.1344     2.2512     0.3051 O.3     
  28 C28            2.3828     1.5595     0.2346 C.3     
  29 H29            1.0380    -0.3160    -0.1409 H       
  30 H30           -1.8331    -4.3115    -2.7230 H       
  31 H31            0.4618    -4.6986     0.8619 H       
  32 H32            0.2352    -2.2841     1.2722 H       
  33 H33           -6.8408     2.3928    -1.0649 H       
  34 H34           -4.6425     1.1522    -1.9084 H       
  35 H35           -2.8206     0.9152     2.5103 H       
  36 H36           -4.5329     4.8258     2.2639 H       
  37 H37           -3.4354     5.4339     4.3811 H       
  38 H38           -2.0383     3.7880     5.5628 H       
  39 H39           -1.7308     1.5317     4.6291 H       
  40 H40            0.2290    -6.2294    -1.7049 H       
  41 H41            2.4851     1.0935    -0.7455 H       
  42 H42            3.1987     2.2658     0.3880 H       
  43 H43            2.4168     0.7915     1.0073 H       
@<TRIPOS>BOND
   1    1    2 2
   2    1   27 1
   3    1    6 1
   4    2    3 1
   5    2   29 1
   6    3    4 1
   7    3    7 1
   8    4    5 2
   9    5    6 1
  10    5   12 1
  11    6   19 2
  12    7   24 ar
  13    7   11 ar
  14    8    9 ar
  15    8   24 ar
  16    8   30 1
  17    9   10 ar
  18    9   26 1
  19   10   11 ar
  20   10   31 1
  21   11   32 1
  22   12   13 1
  23   12   16 2
  24   13   14 1
  25   13   17 1
  26   14   15 2
  27   15   16 1
  28   15   33 1
  29   16   34 1
  30   17   20 ar
  31   17   18 ar
  32   18   23 ar
  33   18   35 1
  34   20   21 ar
  35   20   36 1
  36   21   22 ar
  37   21   37 1
  38   22   23 ar
  39   22   38 1
  40   23   39 1
  41   24   25 1
  42   26   40 1
  43   27   28 1
  44   28   41 1
  45   28   42 1
  46   28   43 1

#	End of record

