#	Name: ASD01890270
#	Creating user name:	WinNT
#	Creation time:	15. 06. 2019 19:50

#	Modifying user name:	WinNT
#	Modification time:	15. 06. 2019 19:50

#	Program:	/corina/corina34_cracker 3.40 0067  02.08.2006

@<TRIPOS>MOLECULE
ASD01890270
  51   53    0    0    0
SMALL
NO_CHARGES


@<TRIPOS>ATOM
   1 C1            -0.0279     1.4541    -0.0223 C.2     
   2 C2            -0.0036    -0.0080    -0.0416 C.2     
   3 C3             1.1740    -0.6622    -0.1145 C.2     
   4 C4             2.4493     0.1057    -0.3495 C.3     
   5 C5             3.0808     0.4693     0.9958 C.3     
   6 O6             1.0138     2.0788     0.0396 O.2     
   7 O7            -1.2054     2.1100    -0.0789 O.3     
   8 C8             1.2133    -2.1258     0.0353 C.ar    
   9 C9             0.5944    -2.9462    -0.9132 C.ar    
  10 C10            0.6360    -4.3166    -0.7661 C.ar    
  11 C11            1.2876    -4.8805     0.3170 C.ar    
  12 C12            1.9021    -4.0752     1.2601 C.ar    
  13 C13            1.8747    -2.7034     1.1238 C.ar    
  14 C14            6.6987     2.6478     0.3289 C.ar    
  15 C15            5.4869     3.3249     0.4497 C.ar    
  16 C16            4.3221     2.6167     0.6652 C.ar    
  17 C17            4.3561     1.2372     0.7609 C.ar    
  18 C18            5.5563     0.5599     0.6423 C.ar    
  19 C19            6.7272     1.2581     0.4266 C.ar    
  20 C20            7.9535     3.4034     0.0910 C.ar    
  21 C21            9.1653     2.7262    -0.0297 C.ar    
  22 C22           10.3293     3.4341    -0.2509 C.ar    
  23 C23           10.2945     4.8131    -0.3523 C.ar    
  24 C24            9.0944     5.4904    -0.2327 C.ar    
  25 C25            7.9234     4.7921    -0.0181 C.ar    
  26 C26           -1.1544     3.5379    -0.0559 C.3     
  27 C27           -2.5756     4.1001    -0.1274 C.3     
  28 H28           -0.9284    -0.5640     0.0026 H       
  29 H29            3.1434    -0.5093    -0.9223 H       
  30 H30            2.2276     1.0170    -0.9049 H       
  31 H31            2.3867     1.0842     1.5687 H       
  32 H32            3.3025    -0.4420     1.5513 H       
  33 H33            0.0849    -2.5077    -1.7585 H       
  34 H34            0.1585    -4.9516    -1.4977 H       
  35 H35            1.3164    -5.9545     0.4269 H       
  36 H36            2.4080    -4.5227     2.1029 H       
  37 H37            2.3585    -2.0765     1.8581 H       
  38 H38            5.4593     4.4020     0.3751 H       
  39 H39            3.3823     3.1405     0.7590 H       
  40 H40            5.5772    -0.5172     0.7181 H       
  41 H41            7.6636     0.7283     0.3334 H       
  42 H42            9.1936     1.6496     0.0499 H       
  43 H43           11.2691     2.9102    -0.3447 H       
  44 H44           11.2078     5.3631    -0.5250 H       
  45 H45            9.0730     6.5673    -0.3123 H       
  46 H46            6.9862     5.3215     0.0700 H       
  47 H47           -0.6784     3.8696     0.8668 H       
  48 H48           -0.5791     3.8947    -0.9102 H       
  49 H49           -3.0516     3.7684    -1.0501 H       
  50 H50           -3.1509     3.7433     0.7269 H       
  51 H51           -2.5367     5.1893    -0.1099 H       
@<TRIPOS>BOND
   1    1    2 1
   2    1    6 2
   3    1    7 1
   4    2    3 2
   5    2   28 1
   6    3    4 1
   7    3    8 1
   8    4    5 1
   9    4   29 1
  10    4   30 1
  11    5   17 1
  12    5   31 1
  13    5   32 1
  14    7   26 1
  15    8    9 ar
  16    8   13 ar
  17    9   10 ar
  18    9   33 1
  19   10   11 ar
  20   10   34 1
  21   11   12 ar
  22   11   35 1
  23   12   13 ar
  24   12   36 1
  25   13   37 1
  26   14   15 ar
  27   14   19 ar
  28   14   20 1
  29   15   16 ar
  30   15   38 1
  31   16   17 ar
  32   16   39 1
  33   17   18 ar
  34   18   19 ar
  35   18   40 1
  36   19   41 1
  37   20   21 ar
  38   20   25 ar
  39   21   22 ar
  40   21   42 1
  41   22   23 ar
  42   22   43 1
  43   23   24 ar
  44   23   44 1
  45   24   25 ar
  46   24   45 1
  47   25   46 1
  48   26   27 1
  49   26   47 1
  50   26   48 1
  51   27   49 1
  52   27   50 1
  53   27   51 1

#	End of record

