#	Name: ASD01918084
#	Creating user name:	WinNT
#	Creation time:	15. 06. 2019 20:10

#	Modifying user name:	WinNT
#	Modification time:	15. 06. 2019 20:10

#	Program:	/corina/corina34_cracker 3.40 0067  02.08.2006

@<TRIPOS>MOLECULE
ASD01918084
  30   32    0    0    0
SMALL
NO_CHARGES


@<TRIPOS>ATOM
   1 C1            -0.0169     1.3915     0.0097 C.ar    
   2 C2             0.0021    -0.0041     0.0020 C.ar    
   3 C3             1.2401    -0.6458    -0.0132 C.ar    
   4 N4             2.3496     0.0921    -0.0199 N.ar    
   5 C5             2.2878     1.4073    -0.0122 C.ar    
   6 N6             1.1395     2.0524     0.0022 N.ar    
   7 C7            -1.3048     2.1272     0.0198 C.ar    
   8 C8            -1.3122     3.5185     0.0274 C.ar    
   9 C9            -2.5263     4.2037     0.0364 C.ar    
  10 C10           -3.7272     3.4898     0.0377 C.ar    
  11 C11           -3.7117     2.1086     0.0306 C.ar    
  12 C12           -2.5097     1.4254     0.0159 C.ar    
  13 C13            1.3205    -2.1270    -0.0215 C.ar    
  14 N14            0.2054    -2.8459    -0.0143 N.ar    
  15 C15            0.2318    -4.1618    -0.0216 C.ar    
  16 C16            1.4362    -4.8488    -0.0368 C.ar    
  17 C17            2.6269    -4.1333    -0.0447 C.ar    
  18 C18            2.5660    -2.7502    -0.0425 C.ar    
  19 C19           -2.5424     5.6356     0.0447 C.1     
  20 N20           -2.5551     6.7715     0.0513 N.1     
  21 Cl21          -5.2073     1.2272     0.0335 Cl      
  22 F22            1.4515    -6.1997    -0.0432 F       
  23 H23           -0.9169    -0.5714     0.0081 H       
  24 H24            3.2068     1.9745    -0.0176 H       
  25 H25           -0.3810     4.0656     0.0267 H       
  26 H26           -4.6689     4.0186     0.0447 H       
  27 H27           -2.5041     0.3454     0.0059 H       
  28 H28           -0.6965    -4.7137    -0.0153 H       
  29 H29            3.5783    -4.6443    -0.0566 H       
  30 H30            3.4720    -2.1624    -0.0528 H       
@<TRIPOS>BOND
   1    1    2 ar
   2    1    6 ar
   3    1    7 1
   4    2    3 ar
   5    2   23 1
   6    3    4 ar
   7    3   13 1
   8    4    5 ar
   9    5    6 ar
  10    5   24 1
  11    7    8 ar
  12    7   12 ar
  13    8    9 ar
  14    8   25 1
  15    9   10 ar
  16    9   19 1
  17   10   11 ar
  18   10   26 1
  19   11   12 ar
  20   11   21 1
  21   12   27 1
  22   13   14 ar
  23   13   18 ar
  24   14   15 ar
  25   15   16 ar
  26   15   28 1
  27   16   17 ar
  28   16   22 1
  29   17   18 ar
  30   17   29 1
  31   18   30 1
  32   19   20 3

#	End of record

