#	Name: ASD01882144
#	Creating user name:	WinNT
#	Creation time:	15. 06. 2019 19:44

#	Modifying user name:	WinNT
#	Modification time:	15. 06. 2019 19:44

#	Program:	/corina/corina34_cracker 3.40 0067  02.08.2006

@<TRIPOS>MOLECULE
ASD01882144
  45   48    0    0    0
SMALL
NO_CHARGES


@<TRIPOS>ATOM
   1 C1            -0.8096    -0.0513     1.1156 C.2     
   2 C2             0.0021    -0.0041     0.0020 C.2     
   3 C3            -0.4062     0.7467    -1.1210 C.2     
   4 C4            -1.5784     1.4103    -1.1030 C.2     
   5 N5            -2.3895     1.3704    -0.0051 N.pl3   
   6 C6            -2.0310     0.6477     1.1033 C.2     
   7 C7            -3.6062     1.9434     0.2676 C.2     
   8 C8            -3.9529     1.5680     1.5167 C.2     
   9 N9            -2.9903     0.7832     2.0101 N.2     
  10 N10            1.2139    -0.6906    -0.0142 N.pl3   
  11 Cl11          -0.3345    -0.9669     2.5119 Cl      
  12 C12           -4.4058     2.8267    -0.6551 C.3     
  13 C13            1.2520    -2.1574     0.0876 C.3     
  14 C14            2.1136    -2.7025    -1.0565 C.3     
  15 N15            3.4264    -2.0439    -1.0332 N.3     
  16 C16            3.3022    -0.5993    -1.2688 C.3     
  17 C17            2.4890     0.0316    -0.1396 C.3     
  18 C18            4.2982    -2.6300    -1.9586 C.ar    
  19 C19            4.6223    -3.9750    -1.8526 C.ar    
  20 C20            5.4828    -4.5520    -2.7674 C.ar    
  21 C21            6.0218    -3.7899    -3.7895 C.ar    
  22 C22            5.7006    -2.4471    -3.8986 C.ar    
  23 C23            4.8363    -1.8664    -2.9891 C.ar    
  24 F24            4.5227    -0.5566    -3.0952 F       
  25 F25            6.8629    -4.3568    -4.6819 F       
  26 C26           -4.1012     4.2942    -0.3473 C.3     
  27 F27           -2.7364     4.5367    -0.5361 F       
  28 F28           -4.8435     5.1141    -1.2039 F       
  29 F29           -4.4453     4.5734     0.9797 F       
  30 H30            0.2233     0.7897    -1.9975 H       
  31 H31           -1.8806     1.9816    -1.9683 H       
  32 H32           -4.8590     1.8523     2.0310 H       
  33 H33           -4.1378     2.6092    -1.6890 H       
  34 H34           -5.4692     2.6377    -0.5080 H       
  35 H35            1.6875    -2.4469     1.0439 H       
  36 H36            0.2409    -2.5564     0.0067 H       
  37 H37            2.2437    -3.7776    -0.9333 H       
  38 H38            1.6228    -2.5018    -2.0088 H       
  39 H39            4.2944    -0.1491    -1.2997 H       
  40 H40            2.7949    -0.4279    -2.2182 H       
  41 H41            2.2970     1.0799    -0.3682 H       
  42 H42            3.0410    -0.0467     0.7970 H       
  43 H43            4.2027    -4.5706    -1.0554 H       
  44 H44            5.7352    -5.5988    -2.6845 H       
  45 H45            6.1226    -1.8542    -4.6966 H       
@<TRIPOS>BOND
   1    1    2 2
   2    1   11 1
   3    1    6 1
   4    2    3 1
   5    2   10 1
   6    3    4 2
   7    3   30 1
   8    4    5 1
   9    4   31 1
  10    5    6 1
  11    5    7 1
  12    6    9 2
  13    7    8 2
  14    7   12 1
  15    8    9 1
  16    8   32 1
  17   10   13 1
  18   10   17 1
  19   12   26 1
  20   12   33 1
  21   12   34 1
  22   13   14 1
  23   13   35 1
  24   13   36 1
  25   14   15 1
  26   14   37 1
  27   14   38 1
  28   15   16 1
  29   15   18 1
  30   16   17 1
  31   16   39 1
  32   16   40 1
  33   17   41 1
  34   17   42 1
  35   18   19 ar
  36   18   23 ar
  37   19   20 ar
  38   19   43 1
  39   20   21 ar
  40   20   44 1
  41   21   22 ar
  42   21   25 1
  43   22   23 ar
  44   22   45 1
  45   23   24 1
  46   26   27 1
  47   26   28 1
  48   26   29 1

#	End of record

