#	Name: ASD03093009
#	Creating user name:	WinNT
#	Creation time:	15. 06. 2019 20:33

#	Modifying user name:	WinNT
#	Modification time:	15. 06. 2019 20:33

#	Program:	/corina/corina34_cracker 3.40 0067  02.08.2006

@<TRIPOS>MOLECULE
ASD03093009
  56   59    0    0    0
SMALL
NO_CHARGES


@<TRIPOS>ATOM
   1 C1            -0.0178     1.4608     0.0101 C.3     
   2 N2             0.0021    -0.0041     0.0020 N.am    
   3 C3            -1.1558    -0.6938     0.0094 C.2     
   4 C4            -1.1354    -2.2006     0.0011 C.3     
   5 O5            -2.2142    -0.1017     0.0227 O.2     
   6 N6            -2.5098    -2.7077     0.0115 N.am    
   7 N7            -3.1352    -2.9493     1.2349 N.2     
   8 C8            -4.3514    -3.3988     1.3251 C.2     
   9 C9            -5.1223    -3.6724     0.1121 C.ar    
  10 C10           -4.5144    -3.4369    -1.1423 C.ar    
  11 C11           -3.1391    -2.9235    -1.1625 C.2     
  12 C12           -4.9675    -3.6386     2.6793 C.3     
  13 C13           -3.9190    -3.3959     3.7668 C.3     
  14 C14           -4.5445    -3.6394     5.1417 C.3     
  15 C15           -5.7202    -2.6815     5.3440 C.3     
  16 C16           -6.7687    -2.9242     4.2565 C.3     
  17 C17           -6.1433    -2.6807     2.8816 C.3     
  18 C18           -6.4309    -4.1561     0.1640 C.ar    
  19 C19           -7.1099    -4.3968    -0.9977 C.ar    
  20 C20           -6.5161    -4.1667    -2.2321 C.ar    
  21 C21           -5.2263    -3.6896    -2.3141 C.ar    
  22 O22           -2.5738    -2.7049    -2.2191 O.2     
  23 C23            1.4176     1.9904    -0.0008 C.3     
  24 C24            1.3972     3.4972     0.0075 C.ar    
  25 C25            1.3992     4.1819     1.2084 C.ar    
  26 C26            1.3804     5.5641     1.2160 C.ar    
  27 C27            1.3600     6.2616     0.0227 C.ar    
  28 C28            1.3589     5.5769    -1.1782 C.ar    
  29 C29            1.3821     4.1948    -1.1858 C.ar    
  30 H30           -0.5450     1.8219    -0.8730 H       
  31 H31           -0.5280     1.8123     0.9069 H       
  32 H32            0.8486    -0.4776    -0.0086 H       
  33 H33           -0.6252    -2.5521    -0.8957 H       
  34 H34           -0.6082    -2.5617     0.8841 H       
  35 H35           -5.3225    -4.6674     2.7400 H       
  36 H36           -3.0814    -4.0784     3.6227 H       
  37 H37           -3.5640    -2.3671     3.7062 H       
  38 H38           -4.8994    -4.6682     5.2024 H       
  39 H39           -3.7975    -3.4665     5.9165 H       
  40 H40           -6.1658    -2.8549     6.3236 H       
  41 H41           -5.3653    -1.6527     5.2834 H       
  42 H42           -7.1237    -3.9530     4.3172 H       
  43 H43           -7.6063    -2.2417     4.4007 H       
  44 H44           -5.7883    -1.6519     2.8210 H       
  45 H45           -6.8902    -2.8536     2.1069 H       
  46 H46           -6.9042    -4.3397     1.1172 H       
  47 H47           -8.1220    -4.7713    -0.9551 H       
  48 H48           -7.0713    -4.3642    -3.1372 H       
  49 H49           -4.7710    -3.5127    -3.2773 H       
  50 H50            1.9448     1.6293     0.8823 H       
  51 H51            1.9278     1.6388    -0.8976 H       
  52 H52            1.4151     3.6369     2.1407 H       
  53 H53            1.3813     6.0990     2.1542 H       
  54 H54            1.3446     7.3415     0.0286 H       
  55 H55            1.3426     6.1219    -2.1105 H       
  56 H56            1.3812     3.6599    -2.1240 H       
@<TRIPOS>BOND
   1    1    2 1
   2    1   23 1
   3    1   30 1
   4    1   31 1
   5    2    3 am
   6    2   32 1
   7    3    4 1
   8    3    5 2
   9    4    6 1
  10    4   33 1
  11    4   34 1
  12    6    7 1
  13    6   11 am
  14    7    8 2
  15    8    9 1
  16    8   12 1
  17    9   10 ar
  18    9   18 ar
  19   10   11 1
  20   10   21 ar
  21   11   22 2
  22   12   13 1
  23   12   17 1
  24   12   35 1
  25   13   14 1
  26   13   36 1
  27   13   37 1
  28   14   15 1
  29   14   38 1
  30   14   39 1
  31   15   16 1
  32   15   40 1
  33   15   41 1
  34   16   17 1
  35   16   42 1
  36   16   43 1
  37   17   44 1
  38   17   45 1
  39   18   19 ar
  40   18   46 1
  41   19   20 ar
  42   19   47 1
  43   20   21 ar
  44   20   48 1
  45   21   49 1
  46   23   24 1
  47   23   50 1
  48   23   51 1
  49   24   25 ar
  50   24   29 ar
  51   25   26 ar
  52   25   52 1
  53   26   27 ar
  54   26   53 1
  55   27   28 ar
  56   27   54 1
  57   28   29 ar
  58   28   55 1
  59   29   56 1

#	End of record

