#	Name: ASD03431005
#	Creating user name:	WinNT
#	Creation time:	15. 06. 2019 20:41

#	Modifying user name:	WinNT
#	Modification time:	15. 06. 2019 20:41

#	Program:	/corina/corina34_cracker 3.40 0067  02.08.2006

@<TRIPOS>MOLECULE
ASD03431005
  47   52    0    0    0
SMALL
NO_CHARGES


@<TRIPOS>ATOM
   1 O1            -0.0164     1.3591     0.0095 O.3     
   2 C2             0.0021    -0.0041     0.0020 C.ar    
   3 C3             1.2484    -0.4929     0.3865 C.ar    
   4 C4             2.1198     0.7059     0.6451 C.3     
   5 C5             1.3349     1.8565    -0.0007 C.3     
   6 O6            -1.6308    -3.3076    -0.5170 O.3     
   7 C7            -0.7849    -2.2734    -0.2522 C.ar    
   8 C8             0.4655    -2.7356     0.1391 C.ar    
   9 C9             0.4098    -4.2504     0.1095 C.3     
  10 C10           -0.8653    -4.5058    -0.7286 C.3     
  11 C11            1.4726    -1.8512     0.4587 C.ar    
  12 C12           -1.0070    -0.9028    -0.3209 C.ar    
  13 N13            4.3703     0.6967     1.0465 N.am    
  14 C14            3.4862     0.5573     0.0388 C.2     
  15 C15            2.3570     0.9401     2.1071 C.ar    
  16 C16            1.5257     1.1451     3.1859 C.ar    
  17 C17            2.0611     1.3372     4.4471 C.ar    
  18 C18            3.4329     1.3235     4.6224 C.ar    
  19 C19            4.2699     1.1185     3.5454 C.ar    
  20 C20            3.7397     0.9223     2.2725 C.ar    
  21 O21            3.7433     0.3518    -1.1286 O.2     
  22 C22            5.8233     0.6198     0.8762 C.3     
  23 O23            6.5176     2.5366    -0.6357 O.3     
  24 C24            6.3683     1.9940     0.5838 C.2     
  25 C25            6.7873     2.8855     1.4998 C.2     
  26 C26            7.2138     4.0318     0.7907 C.2     
  27 C27            7.0299     3.7723    -0.5163 C.2     
  28 C28            7.3454     4.7093    -1.6537 C.3     
  29 F29            8.6618     4.5004    -2.0786 F       
  30 F30            6.4683     4.4651    -2.7159 F       
  31 F31            7.1988     6.0321    -1.2226 F       
  32 H32            1.6749     2.0316    -1.0214 H       
  33 H33            1.4175     2.7643     0.5968 H       
  34 H34            1.2897    -4.6631    -0.3841 H       
  35 H35            0.3028    -4.6562     1.1155 H       
  36 H36           -1.4031    -5.3782    -0.3572 H       
  37 H37           -0.6169    -4.6241    -1.7833 H       
  38 H38            2.4390    -2.2227     0.7659 H       
  39 H39           -1.9741    -0.5329    -0.6280 H       
  40 H40            0.4547     1.1563     3.0471 H       
  41 H41            1.4091     1.4979     5.2929 H       
  42 H42            3.8507     1.4743     5.6068 H       
  43 H43            5.3402     1.1098     3.6897 H       
  44 H44            6.2765     0.2362     1.7903 H       
  45 H45            6.0571    -0.0478     0.0469 H       
  46 H46            6.7956     2.7515     2.5715 H       
  47 H47            7.6107     4.9414     1.2167 H       
@<TRIPOS>BOND
   1    1    2 1
   2    1    5 1
   3    2    3 ar
   4    2   12 ar
   5    3    4 1
   6    3   11 ar
   7    4    5 1
   8    4   14 1
   9    4   15 1
  10    5   32 1
  11    5   33 1
  12    6    7 1
  13    6   10 1
  14    7    8 ar
  15    7   12 ar
  16    8    9 1
  17    8   11 ar
  18    9   10 1
  19    9   34 1
  20    9   35 1
  21   10   36 1
  22   10   37 1
  23   11   38 1
  24   12   39 1
  25   13   14 am
  26   13   20 1
  27   13   22 1
  28   14   21 2
  29   15   16 ar
  30   15   20 ar
  31   16   17 ar
  32   16   40 1
  33   17   18 ar
  34   17   41 1
  35   18   19 ar
  36   18   42 1
  37   19   20 ar
  38   19   43 1
  39   22   24 1
  40   22   44 1
  41   22   45 1
  42   23   24 1
  43   23   27 1
  44   24   25 2
  45   25   26 1
  46   25   46 1
  47   26   27 2
  48   26   47 1
  49   27   28 1
  50   28   29 1
  51   28   30 1
  52   28   31 1

#	End of record

