#	Name: ASD07170001
#	Creating user name:	WinNT
#	Creation time:	15. 06. 2019 21:09

#	Modifying user name:	WinNT
#	Modification time:	15. 06. 2019 21:09

#	Program:	/corina/corina34_cracker 3.40 0067  02.08.2006

@<TRIPOS>MOLECULE
ASD07170001
  70   74    0    0    0
SMALL
NO_CHARGES


@<TRIPOS>ATOM
   1 C1             0.1638     1.5047    -0.8008 C.3     
   2 C2            -0.0740     0.0103    -0.5072 C.3     
   3 N3             1.2104    -0.4599     0.0289 N.2     
   4 C4             2.0616     0.5125     0.0652 C.2     
   5 N5             1.5640     1.7118    -0.3952 N.am    
   6 C6             3.4446     0.3520     0.5570 C.ar    
   7 C7             3.9035     1.1268     1.6311 C.ar    
   8 C8             5.2011     0.9703     2.0867 C.ar    
   9 C9             6.0432     0.0493     1.4808 C.ar    
  10 C10            5.5891    -0.7195     0.4150 C.ar    
  11 C11            4.2981    -0.5764    -0.0424 C.ar    
  12 C12           -1.1666    -0.1588     0.5168 C.ar    
  13 C13           -2.4479    -0.4846     0.1127 C.ar    
  14 C14           -3.4504    -0.6398     1.0514 C.ar    
  15 C15           -3.1714    -0.4690     2.3957 C.ar    
  16 C16           -1.8890    -0.1429     2.7995 C.ar    
  17 C17           -0.8860     0.0065     1.8603 C.ar    
  18 C18           -0.0120     1.7922    -2.2696 C.ar    
  19 C19           -1.2578     2.1330    -2.7627 C.ar    
  20 C20           -1.4197     2.3968    -4.1097 C.ar    
  21 C21           -0.3347     2.3198    -4.9647 C.ar    
  22 C22            0.9118     1.9787    -4.4706 C.ar    
  23 C23            1.0736     1.7206    -3.1225 C.ar    
  24 O24            7.3155    -0.1015     1.9299 O.3     
  25 C25            8.1294    -1.0672     1.2612 C.3     
  26 O26            3.0785     2.0280     2.2220 O.3     
  27 C27            3.6485     2.8668     3.2288 C.3     
  28 C28            2.8373     4.1597     3.3348 C.3     
  29 C29            3.6242     2.1378     4.5737 C.3     
  30 C30            2.2424     2.8745    -0.4632 C.2     
  31 N31            1.5914     4.0185    -0.7527 N.am    
  32 O32            3.4414     2.8912    -0.2635 O.2     
  33 C33            2.1053     5.8079    -2.3180 C.3     
  34 C34            2.3113     5.2958    -0.8912 C.3     
  35 C35            0.1343     4.0410    -0.9492 C.3     
  36 C36           -0.1839     4.9102    -2.1352 C.2     
  37 N37            0.7091     5.7239    -2.7004 N.am    
  38 O38           -1.3038     4.8687    -2.5989 O.2     
  39 Cl39          -4.4302    -0.6632     3.5753 Cl      
  40 Cl40          -0.5373     2.6505    -6.6568 Cl      
  41 H41           -0.5050     2.1248    -0.2039 H       
  42 H42           -0.3232    -0.5237    -1.4242 H       
  43 H43            5.5582     1.5656     2.9141 H       
  44 H44            6.2497    -1.4346    -0.0527 H       
  45 H45            3.9474    -1.1784    -0.8676 H       
  46 H46           -2.6656    -0.6176    -0.9367 H       
  47 H47           -4.4514    -0.8941     0.7356 H       
  48 H48           -1.6706    -0.0094     3.8488 H       
  49 H49            0.1161     0.2568     2.1757 H       
  50 H50           -2.1047     2.1927    -2.0952 H       
  51 H51           -2.3930     2.6626    -4.4948 H       
  52 H52            1.7592     1.9185    -5.1376 H       
  53 H53            2.0475     1.4587    -2.7359 H       
  54 H54            7.6697    -2.0518     1.3472 H       
  55 H55            8.2201    -0.7994     0.2085 H       
  56 H56            9.1190    -1.0870     1.7177 H       
  57 H57            4.6785     3.1048     2.9631 H       
  58 H58            1.8074     3.9217     3.6005 H       
  59 H59            3.2721     4.7995     4.1027 H       
  60 H60            2.8546     4.6791     2.3766 H       
  61 H61            2.5942     1.8997     4.8395 H       
  62 H62            4.2021     1.2166     4.4982 H       
  63 H63            4.0590     2.7775     5.3417 H       
  64 H64            2.4288     6.8471    -2.3764 H       
  65 H65            2.7026     5.2077    -3.0043 H       
  66 H66            1.9151     6.0202    -0.1796 H       
  67 H67            3.3742     5.1408    -0.7059 H       
  68 H68           -0.2251     3.0283    -1.1319 H       
  69 H69           -0.3478     4.4465    -0.0597 H       
  70 H70            0.4038     6.2965    -3.4214 H       
@<TRIPOS>BOND
   1    1    2 1
   2    1    5 1
   3    1   18 1
   4    1   41 1
   5    2    3 1
   6    2   12 1
   7    2   42 1
   8    3    4 2
   9    4    5 1
  10    4    6 1
  11    5   30 am
  12    6    7 ar
  13    6   11 ar
  14    7    8 ar
  15    7   26 1
  16    8    9 ar
  17    8   43 1
  18    9   10 ar
  19    9   24 1
  20   10   11 ar
  21   10   44 1
  22   11   45 1
  23   12   13 ar
  24   12   17 ar
  25   13   14 ar
  26   13   46 1
  27   14   15 ar
  28   14   47 1
  29   15   16 ar
  30   15   39 1
  31   16   17 ar
  32   16   48 1
  33   17   49 1
  34   18   19 ar
  35   18   23 ar
  36   19   20 ar
  37   19   50 1
  38   20   21 ar
  39   20   51 1
  40   21   22 ar
  41   21   40 1
  42   22   23 ar
  43   22   52 1
  44   23   53 1
  45   24   25 1
  46   25   54 1
  47   25   55 1
  48   25   56 1
  49   26   27 1
  50   27   28 1
  51   27   29 1
  52   27   57 1
  53   28   58 1
  54   28   59 1
  55   28   60 1
  56   29   61 1
  57   29   62 1
  58   29   63 1
  59   30   31 am
  60   30   32 2
  61   31   35 1
  62   31   34 1
  63   33   34 1
  64   33   37 1
  65   33   64 1
  66   33   65 1
  67   34   66 1
  68   34   67 1
  69   35   36 1
  70   35   68 1
  71   35   69 1
  72   36   37 am
  73   36   38 2
  74   37   70 1

#	End of record

