#	Name: ASD02198631
#	Creating user name:	WinNT
#	Creation time:	15. 06. 2019 20:19

#	Modifying user name:	WinNT
#	Modification time:	15. 06. 2019 20:19

#	Program:	/corina/corina34_cracker 3.40 0067  02.08.2006

@<TRIPOS>MOLECULE
ASD02198631
  56   60    0    0    0
SMALL
NO_CHARGES


@<TRIPOS>ATOM
   1 C1             0.0067     1.5060     0.1349 C.2     
   2 C2             0.0730     0.1660    -0.0930 C.2     
   3 N3            -1.0541    -0.5635    -0.2628 N.pl3   
   4 N4            -2.2317    -0.0592    -0.2224 N.2     
   5 C5            -2.4385     1.2236    -0.0095 C.2     
   6 C6            -1.2794     2.1039     0.1932 C.2     
   7 C7            -0.9274    -1.9373    -0.4946 C.ar    
   8 C8            -1.5136    -2.5122    -1.6182 C.ar    
   9 C9            -1.3853    -3.8705    -1.8433 C.ar    
  10 C10           -0.6761    -4.6560    -0.9531 C.ar    
  11 C11           -0.0933    -4.0871     0.1643 C.ar    
  12 C12           -0.2117    -2.7299     0.3929 C.ar    
  13 C13           -3.8114     1.7674     0.0301 C.2     
  14 N14           -4.3732     2.4804     1.0516 N.pl3   
  15 N15           -5.6846     2.7998     0.6782 N.2     
  16 C16           -5.9151     2.3071    -0.5127 C.2     
  17 C17           -4.7645     1.6563    -0.9583 C.2     
  18 C18           -3.7493     2.8289     2.2562 C.ar    
  19 C19           -3.9184     4.1021     2.7844 C.ar    
  20 C20           -3.3023     4.4425     3.9727 C.ar    
  21 C21           -2.5174     3.5173     4.6362 C.ar    
  22 C22           -2.3468     2.2488     4.1126 C.ar    
  23 C23           -2.9652     1.9003     2.9279 C.ar    
  24 O24           -1.4165     3.3018     0.3949 O.2     
  25 O25            1.1345     2.2464     0.3066 O.3     
  26 C26            2.3823     1.5536     0.2366 C.3     
  27 F27           -2.2071    -1.7447    -2.4873 F       
  28 C28           -2.0191    -4.4954    -3.0594 C.3     
  29 C29           -0.9357    -5.1468    -3.9244 C.3     
  30 C30           -1.5964    -5.8460    -5.1153 C.3     
  31 O31           -2.5381    -6.8091    -4.6380 O.3     
  32 C32           -3.6008    -6.2512    -3.8624 C.3     
  33 C33           -3.0207    -5.5683    -2.6211 C.3     
  34 H34            1.0360    -0.3207    -0.1391 H       
  35 H35           -0.5776    -5.7167    -1.1309 H       
  36 H36            0.4591    -4.7042     0.8574 H       
  37 H37            0.2442    -2.2871     1.2662 H       
  38 H38           -6.8415     2.3935    -1.0610 H       
  39 H39           -4.6447     1.1506    -1.9051 H       
  40 H40           -4.5307     4.8253     2.2664 H       
  41 H41           -3.4334     5.4325     4.3840 H       
  42 H42           -2.0364     3.7860     5.5651 H       
  43 H43           -1.7326     1.5287     4.6327 H       
  44 H44           -2.8315     0.9094     2.5194 H       
  45 H45            3.1988     2.2592     0.3901 H       
  46 H46            2.4155     0.7858     1.0096 H       
  47 H47            2.4845     1.0873    -0.7433 H       
  48 H48           -2.5343    -3.7279    -3.6371 H       
  49 H49           -0.2494    -4.3812    -4.2864 H       
  50 H50           -0.3869    -5.8782    -3.3312 H       
  51 H51           -2.1112    -5.1079    -5.7303 H       
  52 H52           -0.8338    -6.3476    -5.7111 H       
  53 H53           -4.1419    -5.5184    -4.4610 H       
  54 H54           -4.2823    -7.0447    -3.5556 H       
  55 H55           -2.5140    -6.3082    -2.0016 H       
  56 H56           -3.8255    -5.1041    -2.0511 H       
@<TRIPOS>BOND
   1    1    2 2
   2    1   25 1
   3    1    6 1
   4    2    3 1
   5    2   34 1
   6    3    4 1
   7    3    7 1
   8    4    5 2
   9    5    6 1
  10    5   13 1
  11    6   24 2
  12    7    8 ar
  13    7   12 ar
  14    8    9 ar
  15    8   27 1
  16    9   10 ar
  17    9   28 1
  18   10   11 ar
  19   10   35 1
  20   11   12 ar
  21   11   36 1
  22   12   37 1
  23   13   14 1
  24   13   17 2
  25   14   15 1
  26   14   18 1
  27   15   16 2
  28   16   17 1
  29   16   38 1
  30   17   39 1
  31   18   19 ar
  32   18   23 ar
  33   19   20 ar
  34   19   40 1
  35   20   21 ar
  36   20   41 1
  37   21   22 ar
  38   21   42 1
  39   22   23 ar
  40   22   43 1
  41   23   44 1
  42   25   26 1
  43   26   45 1
  44   26   46 1
  45   26   47 1
  46   28   29 1
  47   28   33 1
  48   28   48 1
  49   29   30 1
  50   29   49 1
  51   29   50 1
  52   30   31 1
  53   30   51 1
  54   30   52 1
  55   31   32 1
  56   32   33 1
  57   32   53 1
  58   32   54 1
  59   33   55 1
  60   33   56 1

#	End of record

