#	Name: ASD09610032
#	Creating user name:	WinNT
#	Creation time:	15. 06. 2019 21:22

#	Modifying user name:	WinNT
#	Modification time:	15. 06. 2019 21:22

#	Program:	/corina/corina34_cracker 3.40 0067  02.08.2006

@<TRIPOS>MOLECULE
ASD09610032
  59   63    0    0    0
SMALL
NO_CHARGES


@<TRIPOS>ATOM
   1 C1            -0.0184     1.5028     0.0103 C.2     
   2 C2             0.0021    -0.0041     0.0020 C.3     
   3 N3            -1.3723    -0.5112     0.0124 N.pl3   
   4 N4            -2.1561    -0.7908    -1.1144 N.2     
   5 C5            -3.3209    -1.2239    -0.7050 C.2     
   6 C6            -3.3162    -1.2339     0.6937 C.2     
   7 C7            -2.1048    -0.7969     1.1092 C.2     
   8 C8            -4.4693    -1.6396    -1.5878 C.3     
   9 F9            -4.0655    -1.6020    -2.9267 F       
  10 F10           -4.8653    -2.9398    -1.2564 F       
  11 F11           -5.5431    -0.7628    -1.3998 F       
  12 C12           -1.6556    -0.6515     2.5403 C.3     
  13 N13            1.1395     2.1925     0.0030 N.am    
  14 C14            1.1358     3.6617     0.0109 C.3     
  15 C15            1.9843     4.1633    -1.1618 C.3     
  16 C16            3.3788     3.5379    -1.0815 C.3     
  17 C17            3.2636     2.0153    -1.1850 C.3     
  18 C18            2.4296     1.4894    -0.0070 C.3     
  19 S19            3.8620     3.8575    -3.8721 S.3     
  20 C20            4.2272     4.0554    -2.2144 C.2     
  21 N21            5.3261     4.7079    -2.0673 N.2     
  22 C22            5.9535     5.0944    -3.1718 C.2     
  23 C23            5.3250     4.7337    -4.3143 C.2     
  24 O24            9.0605     6.9459    -3.8583 O.3     
  25 N25            7.8752     6.2516    -4.1931 N.2     
  26 C26            7.2196     5.8486    -3.1547 C.2     
  27 C27            7.9773     6.2857    -1.9155 C.3     
  28 C28            8.9574     7.3437    -2.4761 C.3     
  29 C29           10.2957     7.2570    -1.7887 C.ar    
  30 C30           10.7086     8.2744    -0.9459 C.ar    
  31 C31           11.9386     8.1936    -0.3148 C.ar    
  32 C32           12.7537     7.0977    -0.5262 C.ar    
  33 C33           12.3424     6.0813    -1.3675 C.ar    
  34 C34           11.1104     6.1572    -1.9952 C.ar    
  35 F35           10.7060     5.1606    -2.8128 F       
  36 F36            9.9122     9.3460    -0.7394 F       
  37 O37           -1.0768     2.0948     0.0185 O.2     
  38 H38            0.5123    -0.3556    -0.8948 H       
  39 H39            0.5293    -0.3651     0.8851 H       
  40 H40           -4.1334    -1.5408     1.3296 H       
  41 H41           -1.9029     0.3476     2.8990 H       
  42 H42           -2.1613    -1.3945     3.1571 H       
  43 H43           -0.5778    -0.8026     2.5999 H       
  44 H44            0.1137     4.0251    -0.0959 H       
  45 H45            1.5582     4.0231     0.9485 H       
  46 H46            1.5112     3.8780    -2.1014 H       
  47 H47            2.0690     5.2488    -1.1115 H       
  48 H48            3.8416     3.8032    -0.1309 H       
  49 H49            2.7785     1.7502    -2.1244 H       
  50 H50            4.2588     1.5720    -1.1513 H       
  51 H51            2.9554     1.6773     0.9292 H       
  52 H52            2.2615     0.4190    -0.1256 H       
  53 H53            5.6608     4.9448    -5.3188 H       
  54 H54            7.3015     6.7323    -1.1862 H       
  55 H55            8.5208     5.4479    -1.4787 H       
  56 H56            8.5401     8.3469    -2.3890 H       
  57 H57           12.2611     8.9875     0.3426 H       
  58 H58           13.7129     7.0358    -0.0339 H       
  59 H59           12.9803     5.2255    -1.5322 H       
@<TRIPOS>BOND
   1    1    2 1
   2    1   13 am
   3    1   37 2
   4    2    3 1
   5    2   38 1
   6    2   39 1
   7    3    4 1
   8    3    7 1
   9    4    5 2
  10    5    6 1
  11    5    8 1
  12    6    7 2
  13    6   40 1
  14    7   12 1
  15    8    9 1
  16    8   10 1
  17    8   11 1
  18   12   41 1
  19   12   42 1
  20   12   43 1
  21   13   14 1
  22   13   18 1
  23   14   15 1
  24   14   44 1
  25   14   45 1
  26   15   16 1
  27   15   46 1
  28   15   47 1
  29   16   17 1
  30   16   20 1
  31   16   48 1
  32   17   18 1
  33   17   49 1
  34   17   50 1
  35   18   51 1
  36   18   52 1
  37   19   20 1
  38   19   23 1
  39   20   21 2
  40   21   22 1
  41   22   23 2
  42   22   26 1
  43   23   53 1
  44   24   25 1
  45   24   28 1
  46   25   26 2
  47   26   27 1
  48   27   28 1
  49   27   54 1
  50   27   55 1
  51   28   29 1
  52   28   56 1
  53   29   30 ar
  54   29   34 ar
  55   30   31 ar
  56   30   36 1
  57   31   32 ar
  58   31   57 1
  59   32   33 ar
  60   32   58 1
  61   33   34 ar
  62   33   59 1
  63   34   35 1

#	End of record

