#	Name: ASD09890123
#	Creating user name:	WinNT
#	Creation time:	15. 06. 2019 21:24

#	Modifying user name:	WinNT
#	Modification time:	15. 06. 2019 21:24

#	Program:	/corina/corina34_cracker 3.40 0067  02.08.2006

@<TRIPOS>MOLECULE
ASD09890123
  35   37    0    0    0
SMALL
NO_CHARGES


@<TRIPOS>ATOM
   1 C1            -0.5719     1.9239    -1.7798 C.ar    
   2 C2            -0.7137     0.5853    -2.1509 C.ar    
   3 C3             1.5644     0.1559    -1.4658 C.ar    
   4 C4             1.6947     1.4773    -1.1036 C.ar    
   5 C5             0.6300     2.3640    -1.2584 C.ar    
   6 C6            -1.8110    -0.2008    -2.7203 C.2     
   7 C7            -1.3598    -1.4566    -2.8669 C.2     
   8 N8            -0.0634    -1.5396    -2.4381 N.pl3   
   9 C9             0.3627    -0.3060    -1.9932 C.ar    
  10 C10           -2.1627    -2.6050    -3.4217 C.3     
  11 N11            0.7792     3.7057    -0.8845 N.am    
  12 C12           -0.2176     4.3390    -0.2351 C.2     
  13 C13           -0.0193     5.7145     0.2578 C.ar    
  14 C14            0.2595     8.2663     1.2198 C.ar    
  15 N15           -0.8213     7.5712     1.5030 N.ar    
  16 C16           -0.9963     6.3349     1.0589 C.ar    
  17 C17            1.1426     6.4200    -0.0577 C.ar    
  18 C18            1.2808     7.7221     0.4353 C.ar    
  19 N19           -2.1480     5.6492     1.3846 N.pl3   
  20 O20           -1.2805     3.7761    -0.0556 O.2     
  21 C21            2.4515     8.4901     0.1351 C.1     
  22 N22            3.3802     9.0995    -0.1031 N.1     
  23 H23           -1.3949     2.6122    -1.9037 H       
  24 H24            2.3955    -0.5225    -1.3413 H       
  25 H25            2.6299     1.8303    -0.6947 H       
  26 H26           -2.7964     0.1613    -2.9737 H       
  27 H27            0.4755    -2.3461    -2.4455 H       
  28 H28           -2.0285    -2.6536    -4.5023 H       
  29 H29           -1.8225    -3.5373    -2.9710 H       
  30 H30           -3.2177    -2.4547    -3.1930 H       
  31 H31            1.5998     4.1789    -1.0931 H       
  32 H32            0.3611     9.2710     1.6028 H       
  33 H33            1.9148     5.9728    -0.6660 H       
  34 H34           -2.9544     6.1370     1.6139 H       
  35 H35           -2.1514     4.6792     1.3842 H       
@<TRIPOS>BOND
   1    1    2 ar
   2    1    5 ar
   3    1   23 1
   4    2    9 ar
   5    2    6 1
   6    3    4 ar
   7    3    9 ar
   8    3   24 1
   9    4    5 ar
  10    4   25 1
  11    5   11 1
  12    6    7 2
  13    6   26 1
  14    7    8 1
  15    7   10 1
  16    8    9 1
  17    8   27 1
  18   10   28 1
  19   10   29 1
  20   10   30 1
  21   11   12 am
  22   11   31 1
  23   12   13 1
  24   12   20 2
  25   13   17 ar
  26   13   16 ar
  27   14   15 ar
  28   14   18 ar
  29   14   32 1
  30   15   16 ar
  31   16   19 1
  32   17   18 ar
  33   17   33 1
  34   18   21 1
  35   19   34 1
  36   19   35 1
  37   21   22 3

#	End of record

