#	Name: ASD01916359
#	Creating user name:	WinNT
#	Creation time:	15. 06. 2019 20:07

#	Modifying user name:	WinNT
#	Modification time:	15. 06. 2019 20:07

#	Program:	/corina/corina34_cracker 3.40 0067  02.08.2006

@<TRIPOS>MOLECULE
ASD01916359
  34   36    0    0    0
SMALL
NO_CHARGES


@<TRIPOS>ATOM
   1 C1             0.1484     1.2944    -0.3721 C.3     
   2 C2            -0.0250    -0.1806     0.0130 C.3     
   3 C3             0.6170    -0.4300     1.3757 C.3     
   4 C4             2.0510     0.0183     1.3900 C.ar    
   5 C5             2.5313     0.9687     0.4819 C.ar    
   6 C6             1.6340     1.5527    -0.5246 C.2     
   7 N7             2.8906    -0.4877     2.2766 N.ar    
   8 C8             4.1600    -0.1029     2.3079 C.ar    
   9 N9             4.6489     0.7978     1.4642 N.ar    
  10 C10            3.8777     1.3514     0.5464 C.ar    
  11 N11            5.0007    -0.6579     3.2500 N.pl3   
  12 O12            2.0662     2.2167    -1.4432 O.2     
  13 C13           -1.5157    -0.5177     0.0822 C.3     
  14 C14            6.3111    -0.1870     3.3818 C.ar    
  15 C15            6.5937     1.1549     3.1612 C.ar    
  16 C16            7.8885     1.6171     3.2920 C.ar    
  17 C17            8.9040     0.7446     3.6419 C.ar    
  18 C18            8.6253    -0.5930     3.8618 C.ar    
  19 C19            7.3312    -1.0593     3.7389 C.ar    
  20 Cl20          10.5306     1.3289     3.8048 Cl      
  21 H21           -0.3608     1.4933    -1.3151 H       
  22 H22           -0.2598     1.9323     0.4118 H       
  23 H23            0.4555    -0.8104    -0.7357 H       
  24 H24            0.0633     0.1189     2.1375 H       
  25 H25            0.5734    -1.4954     1.6017 H       
  26 H26            4.2762     2.0839    -0.1399 H       
  27 H27            4.6832    -1.3747     3.8212 H       
  28 H28           -1.9740    -0.3399    -0.8906 H       
  29 H29           -1.6389    -1.5656     0.3559 H       
  30 H30           -1.9963     0.1122     0.8308 H       
  31 H31            5.8016     1.8361     2.8874 H       
  32 H32            8.1088     2.6604     3.1206 H       
  33 H33            9.4199    -1.2720     4.1341 H       
  34 H34            7.1143    -2.1033     3.9106 H       
@<TRIPOS>BOND
   1    1    2 1
   2    1    6 1
   3    1   21 1
   4    1   22 1
   5    2    3 1
   6    2   13 1
   7    2   23 1
   8    3    4 1
   9    3   24 1
  10    3   25 1
  11    4    5 ar
  12    4    7 ar
  13    5    6 1
  14    5   10 ar
  15    6   12 2
  16    7    8 ar
  17    8    9 ar
  18    8   11 1
  19    9   10 ar
  20   10   26 1
  21   11   14 1
  22   11   27 1
  23   13   28 1
  24   13   29 1
  25   13   30 1
  26   14   15 ar
  27   14   19 ar
  28   15   16 ar
  29   15   31 1
  30   16   17 ar
  31   16   32 1
  32   17   18 ar
  33   17   20 1
  34   18   19 ar
  35   18   33 1
  36   19   34 1

#	End of record

