#	Name: ASD01230094
#	Creating user name:	WinNT
#	Creation time:	15. 06. 2019 19:11

#	Modifying user name:	WinNT
#	Modification time:	15. 06. 2019 19:11

#	Program:	/corina/corina34_cracker 3.40 0067  02.08.2006

@<TRIPOS>MOLECULE
ASD01230094
  50   53    0    0    0
SMALL
NO_CHARGES


@<TRIPOS>ATOM
   1 C1            -0.0166     1.3746     0.0096 C.2     
   2 C2             0.0021    -0.0041     0.0020 C.2     
   3 C3            -1.3406    -0.4406     0.0130 C.2     
   4 N4            -2.1091     0.6141     0.0263 N.2     
   5 N5            -1.3051     1.7596     0.0299 N.pl3   
   6 C6            -1.7856     3.1435     0.0438 C.3     
   7 C7             1.1858     2.2831     0.0030 C.3     
   8 O8             1.5787     2.5630     1.3481 O.3     
   9 C9             2.6536     3.3729     1.5200 C.ar    
  10 C10            3.0837     3.6817     2.8038 C.ar    
  11 C11            4.1816     4.5090     2.9655 C.ar    
  12 C12            4.8129     5.0003     1.8314 C.ar    
  13 C13            4.3307     4.6516     0.5853 C.ar    
  14 N14            3.2851     3.8564     0.4630 N.ar    
  15 C15            1.2024    -0.8636    -0.0145 C.2     
  16 O16            2.4803    -0.4528    -0.0245 O.3     
  17 N17            3.2225    -1.4118    -0.0365 N.2     
  18 C18            2.5311    -2.5225    -0.0356 C.2     
  19 N19            1.2248    -2.1842    -0.0165 N.2     
  20 C20            3.0820    -3.9007    -0.0483 C.ar    
  21 C21            4.4618    -4.0991    -0.0623 C.ar    
  22 C22            2.2191    -4.9960    -0.0404 C.ar    
  23 C23            2.7290    -6.2752    -0.0517 C.ar    
  24 C24            4.1112    -6.4753    -0.0716 C.ar    
  25 C25            4.9743    -5.3777    -0.0741 C.ar    
  26 C26            5.3931    -2.9143    -0.0651 C.3     
  27 C27            4.6598    -7.8478    -0.0832 C.2     
  28 N28            3.8262    -8.9069    -0.0747 N.am    
  29 O29            5.8628    -8.0214    -0.1005 O.2     
  30 C30            6.0116     5.9048     1.9584 C.3     
  31 F31            7.1778     5.1326     1.9848 F       
  32 F32            6.0549     6.7778     0.8661 F       
  33 F33            5.9147     6.6438     3.1424 F       
  34 H34           -1.6735    -1.4680     0.0105 H       
  35 H35           -1.8984     3.4786     1.0749 H       
  36 H36           -1.0673     3.7827    -0.4695 H       
  37 H37           -2.7487     3.1988    -0.4636 H       
  38 H38            2.0072     1.7948    -0.5213 H       
  39 H39            0.9343     3.2149    -0.5035 H       
  40 H40            2.5683     3.2819     3.6646 H       
  41 H41            4.5385     4.7667     3.9517 H       
  42 H42            4.8181     5.0315    -0.3005 H       
  43 H43            1.1503    -4.8411    -0.0251 H       
  44 H44            2.0604    -7.1234    -0.0449 H       
  45 H45            6.0433    -5.5312    -0.0894 H       
  46 H46            5.6274    -2.6339     0.9618 H       
  47 H47            6.3125    -3.1761    -0.5890 H       
  48 H48            4.9132    -2.0761    -0.5702 H       
  49 H49            2.8663    -8.7684    -0.0609 H       
  50 H50            4.1862    -9.8075    -0.0823 H       
@<TRIPOS>BOND
   1    1    2 2
   2    1    7 1
   3    1    5 1
   4    2    3 1
   5    2   15 1
   6    3    4 2
   7    3   34 1
   8    4    5 1
   9    5    6 1
  10    6   35 1
  11    6   36 1
  12    6   37 1
  13    7    8 1
  14    7   38 1
  15    7   39 1
  16    8    9 1
  17    9   10 ar
  18    9   14 ar
  19   10   11 ar
  20   10   40 1
  21   11   12 ar
  22   11   41 1
  23   12   30 1
  24   12   13 ar
  25   13   14 ar
  26   13   42 1
  27   15   16 1
  28   15   19 2
  29   16   17 1
  30   17   18 2
  31   18   19 1
  32   18   20 1
  33   20   21 ar
  34   20   22 ar
  35   21   26 1
  36   21   25 ar
  37   22   23 ar
  38   22   43 1
  39   23   24 ar
  40   23   44 1
  41   24   25 ar
  42   24   27 1
  43   25   45 1
  44   26   46 1
  45   26   47 1
  46   26   48 1
  47   27   28 am
  48   27   29 2
  49   28   49 1
  50   28   50 1
  51   30   31 1
  52   30   32 1
  53   30   33 1

#	End of record

