#	Name: ASD07930552
#	Creating user name:	WinNT
#	Creation time:	15. 06. 2019 21:12

#	Modifying user name:	WinNT
#	Modification time:	15. 06. 2019 21:12

#	Program:	/corina/corina34_cracker 3.40 0067  02.08.2006

@<TRIPOS>MOLECULE
ASD07930552
  46   47    0    0    0
SMALL
NO_CHARGES


@<TRIPOS>ATOM
   1 C1            -0.0351     1.4584     0.0429 C.3     
   2 N2             0.7948    -0.4128    -2.1298 N.2     
   3 N3            -0.8907    -1.7832    -1.2682 N.pl3   
   4 C4            -0.9152    -2.8269    -0.2381 C.3     
   5 C5            -1.2304    -2.1884     1.1217 C.3     
   6 S6             0.0056    -0.8911     1.4438 S.o2    
   7 N7            -0.0147    -0.0064     0.0319 N.am    
   8 C8            -0.0117    -0.7256    -1.1548 C.2     
   9 C9             0.4499    -3.5150    -0.1753 C.3     
  10 C10           -1.9766    -3.8421    -0.5754 C.ar    
  11 C11           -2.8071    -3.6376    -1.6600 C.ar    
  12 C12           -3.7853    -4.5728    -1.9715 C.ar    
  13 C13           -3.9273    -5.7125    -1.1919 C.ar    
  14 C14           -3.0940    -5.9144    -0.1064 C.ar    
  15 C15           -2.1144    -4.9815     0.1986 C.ar    
  16 O16           -0.4584     0.0118     2.4382 O.2     
  17 O17            1.3135    -1.4436     1.5007 O.2     
  18 F18           -1.3010    -5.1793     1.2590 F       
  19 N19           -4.6279    -4.3660    -3.0706 N.am    
  20 C20           -5.0482    -5.4155    -3.8044 C.2     
  21 O21           -4.6207    -6.5268    -3.5736 O.2     
  22 C22           -6.0493    -5.2081    -4.9116 C.3     
  23 C23           -5.4256    -4.3412    -6.0072 C.3     
  24 C24           -7.7530    -6.5135    -5.9785 C.3     
  25 O25           -6.4219    -6.4739    -5.4601 O.3     
  26 F26           -3.2309    -7.0232     0.6532 F       
  27 H27            0.9874     1.8361     0.0399 H       
  28 H28           -0.5590     1.8212    -0.8414 H       
  29 H29           -0.5488     1.8079     0.9385 H       
  30 H30            1.4065     0.3337    -2.0326 H       
  31 H31           -1.4886    -1.8384    -2.0300 H       
  32 H32           -2.2274    -1.7485     1.0989 H       
  33 H33           -1.1803    -2.9459     1.9038 H       
  34 H34            1.2163    -2.7800     0.0707 H       
  35 H35            0.4310    -4.2904     0.5905 H       
  36 H36            0.6749    -3.9647    -1.1424 H       
  37 H37           -2.6959    -2.7503    -2.2656 H       
  38 H38           -4.6877    -6.4407    -1.4324 H       
  39 H39           -4.9092    -3.4674    -3.3038 H       
  40 H40           -6.9334    -4.7101    -4.5135 H       
  41 H41           -6.1496    -4.1912    -6.8081 H       
  42 H42           -5.1413    -3.3757    -5.5889 H       
  43 H43           -4.5415    -4.8392    -6.4053 H       
  44 H44           -7.8551    -5.7756    -6.7742 H       
  45 H45           -7.9586    -7.5074    -6.3761 H       
  46 H46           -8.4605    -6.2878    -5.1807 H       
@<TRIPOS>BOND
   1    1    7 1
   2    1   27 1
   3    1   28 1
   4    1   29 1
   5    2    8 2
   6    2   30 1
   7    3    4 1
   8    3    8 1
   9    3   31 1
  10    4    5 1
  11    4    9 1
  12    4   10 1
  13    5    6 1
  14    5   32 1
  15    5   33 1
  16    6    7 am
  17    6   16 2
  18    6   17 2
  19    7    8 1
  20    9   34 1
  21    9   35 1
  22    9   36 1
  23   10   11 ar
  24   10   15 ar
  25   11   12 ar
  26   11   37 1
  27   12   13 ar
  28   12   19 1
  29   13   14 ar
  30   13   38 1
  31   14   15 ar
  32   14   26 1
  33   15   18 1
  34   19   20 am
  35   19   39 1
  36   20   21 2
  37   20   22 1
  38   22   23 1
  39   22   25 1
  40   22   40 1
  41   23   41 1
  42   23   42 1
  43   23   43 1
  44   24   25 1
  45   24   44 1
  46   24   45 1
  47   24   46 1

#	End of record

