#	Name: ASD05380145
#	Creating user name:	WinNT
#	Creation time:	15. 06. 2019 20:59

#	Modifying user name:	WinNT
#	Modification time:	15. 06. 2019 20:59

#	Program:	/corina/corina34_cracker 3.40 0067  02.08.2006

@<TRIPOS>MOLECULE
ASD05380145
  59   63    0    0    0
SMALL
NO_CHARGES


@<TRIPOS>ATOM
   1 C1             0.0774     1.2178    -0.5191 C.3     
   2 C2            -0.0524    -0.2707    -0.7953 C.2     
   3 C3            -0.4106     1.4418     0.8798 C.3     
   4 O4            -1.4761     0.5598     1.3129 O.3     
   5 C5            -1.1531    -0.7785     1.4058 C.2     
   6 C6            -0.5995    -1.2788     0.1142 C.2     
   7 C7             0.2855    -0.8283    -1.9824 C.2     
   8 C8             0.6857     0.1500    -3.0021 C.2     
   9 C9            -0.1972     1.3600    -2.9330 C.2     
  10 C10           -0.5184     1.8976    -1.7223 C.2     
  11 C11           -1.4109     3.0926    -1.6170 C.3     
  12 C12           -0.4669    -2.4872    -0.4320 C.2     
  13 C13            0.1252    -2.2920    -1.8287 C.3     
  14 O14           -1.3004    -1.4496     2.4039 O.2     
  15 O15            1.5962    -0.0010    -3.7839 O.2     
  16 C16           -0.7187     1.9642    -4.1774 C.3     
  17 C17           -0.7463     3.5015    -3.9820 C.3     
  18 C18           -1.8095     3.7592    -2.9374 C.3     
  19 C19           -1.0137     4.0199    -5.3670 C.2     
  20 C20           -0.3961     3.0050    -6.3229 C.3     
  21 C21            0.1033     1.8160    -5.4568 C.3     
  22 O22           -1.5977     5.0361    -5.6568 O.2     
  23 C23            0.6108     4.0217    -3.5091 C.3     
  24 C24            1.5854     1.5315    -0.5119 C.3     
  25 C25           -1.3257     4.2787     3.0876 C.3     
  26 O26           -1.0281     2.9562     2.6355 O.3     
  27 C27           -0.7056     2.8759     1.2457 C.3     
  28 C28           -5.1778     3.8648    -1.9214 C.3     
  29 O29           -4.0185     4.5199    -1.4028 O.3     
  30 C30           -3.3467     3.7865    -0.3767 C.3     
  31 O31           -2.6252     2.7006    -0.9618 O.3     
  32 H32            0.4512     1.1451     1.5326 H       
  33 H33           -0.9220     3.8635    -1.0178 H       
  34 H34           -0.7265    -3.4285     0.0288 H       
  35 H35           -0.5557    -2.6853    -2.5839 H       
  36 H36            1.0918    -2.7921    -1.8995 H       
  37 H37           -1.7369     1.6022    -4.3587 H       
  38 H38           -2.7677     3.3580    -3.2775 H       
  39 H39           -1.9148     4.8381    -2.7812 H       
  40 H40           -1.1467     2.6582    -7.0347 H       
  41 H41            0.4404     3.4545    -6.8593 H       
  42 H42            1.1708     1.8939    -5.2591 H       
  43 H43           -0.1204     0.8649    -5.9478 H       
  44 H44            1.3716     3.7787    -4.2509 H       
  45 H45            0.5608     5.1030    -3.3808 H       
  46 H46            0.8679     3.5545    -2.5585 H       
  47 H47            2.0142     1.2763    -1.4810 H       
  48 H48            1.7347     2.5934    -0.3168 H       
  49 H49            2.0744     0.9467     0.2672 H       
  50 H50           -0.4625     4.9229     2.9201 H       
  51 H51           -2.1817     4.6674     2.5358 H       
  52 H52           -1.5601     4.2548     4.1519 H       
  53 H53            0.1705     3.4909     1.0399 H       
  54 H54           -1.5486     3.2354     0.6557 H       
  55 H55           -4.8917     2.9034    -2.3479 H       
  56 H56           -5.8959     3.7060    -1.1168 H       
  57 H57           -5.6303     4.4852    -2.6950 H       
  58 H58           -2.6522     4.4449     0.1451 H       
  59 H59           -4.0791     3.3971     0.3305 H       
@<TRIPOS>BOND
   1    1    2 1
   2    1   24 1
   3    1    3 1
   4    1   10 1
   5    2    7 2
   6    2    6 1
   7    3    4 1
   8    3   27 1
   9    3   32 1
  10    4    5 1
  11    5    6 1
  12    5   14 2
  13    6   12 2
  14    7    8 1
  15    7   13 1
  16    8    9 1
  17    8   15 2
  18    9   10 2
  19    9   16 1
  20   10   11 1
  21   11   31 1
  22   11   18 1
  23   11   33 1
  24   12   13 1
  25   12   34 1
  26   13   35 1
  27   13   36 1
  28   16   17 1
  29   16   21 1
  30   16   37 1
  31   17   18 1
  32   17   19 1
  33   17   23 1
  34   18   38 1
  35   18   39 1
  36   19   20 1
  37   19   22 2
  38   20   21 1
  39   20   40 1
  40   20   41 1
  41   21   42 1
  42   21   43 1
  43   23   44 1
  44   23   45 1
  45   23   46 1
  46   24   47 1
  47   24   48 1
  48   24   49 1
  49   25   26 1
  50   25   50 1
  51   25   51 1
  52   25   52 1
  53   26   27 1
  54   27   53 1
  55   27   54 1
  56   28   29 1
  57   28   55 1
  58   28   56 1
  59   28   57 1
  60   29   30 1
  61   30   31 1
  62   30   58 1
  63   30   59 1

#	End of record

