#	Name: ASD01814814
#	Creating user name:	WinNT
#	Creation time:	15. 06. 2019 19:33

#	Modifying user name:	WinNT
#	Modification time:	15. 06. 2019 19:33

#	Program:	/corina/corina34_cracker 3.40 0067  02.08.2006

@<TRIPOS>MOLECULE
ASD01814814
  65   68    0    0    0
SMALL
NO_CHARGES


@<TRIPOS>ATOM
   1 C1            -0.3303   -11.7173   -10.6524 C.3     
   2 O2             0.4490   -10.5362   -10.8516 O.3     
   3 C3             1.7284   -10.7766   -11.4410 C.3     
   4 C4             2.4712    -9.4493   -11.6066 C.3     
   5 N5             2.7534    -8.8797   -10.2867 N.am    
   6 C6             3.4048    -7.7042   -10.1853 C.2     
   7 O7             3.7581    -7.1165   -11.1891 O.2     
   8 C8             3.6893    -7.1299    -8.8547 C.ar    
   9 C9             3.2901    -7.8047    -7.6994 C.ar    
  10 C10            3.5588    -7.2631    -6.4600 C.ar    
  11 C11            4.2224    -6.0527    -6.3577 C.ar    
  12 C12            4.5115    -5.4688    -4.9988 C.3     
  13 C13            5.9135    -5.8334    -4.5833 C.ar    
  14 C14            6.9444    -4.9477    -4.8080 C.ar    
  15 C15            8.2390    -5.2889    -4.4218 C.ar    
  16 C16            9.3785    -4.3844    -4.6354 C.2     
  17 O17            9.2322    -3.2963    -5.1611 O.2     
  18 N18           10.5962    -4.8085    -4.2241 N.am    
  19 C19           10.7434    -6.0255    -3.6385 C.2     
  20 N20            9.7567    -6.8451    -3.4373 N.2     
  21 C21            8.4882    -6.5347    -3.8047 C.ar    
  22 C22            7.4266    -7.4158    -3.5885 C.ar    
  23 C23            7.6715    -8.7496    -2.9312 C.3     
  24 C24            6.1540    -7.0571    -3.9720 C.ar    
  25 C25            5.0088    -8.0065    -3.7312 C.3     
  26 C26           11.7665    -3.9476    -4.4127 C.3     
  27 H27           11.4618    -3.0184    -4.8944 H       
  28 C28           12.3982    -3.6364    -3.0525 C.3     
  29 C29           13.6642    -2.8024    -3.2653 C.3     
  30 O30           14.5662    -3.5161    -4.1134 O.3     
  31 C31           14.0469    -3.7935    -5.4155 C.3     
  32 C32           12.7953    -4.6665    -5.2908 C.3     
  33 H33           13.0616    -5.6196    -4.8339 H       
  34 O34           12.2397    -4.8956    -6.5873 O.3     
  35 C35            4.6217    -5.3769    -7.4957 C.ar    
  36 C36            4.3650    -5.9102    -8.7454 C.ar    
  37 F37            4.7607    -5.2527    -9.8573 F       
  38 H38            0.2052   -12.3988    -9.9916 H       
  39 H39           -1.2861   -11.4501   -10.2016 H       
  40 H40           -0.5047   -12.2037   -11.6122 H       
  41 H41            2.3067   -11.4387   -10.7966 H       
  42 H42            1.5968   -11.2435   -12.4171 H       
  43 H43            3.4083    -9.6210   -12.1361 H       
  44 H44            1.8533    -8.7558   -12.1770 H       
  45 H45            2.4715    -9.3486    -9.4857 H       
  46 H46            2.7716    -8.7490    -7.7762 H       
  47 H47            3.2501    -7.7849    -5.5662 H       
  48 H48            4.4158    -4.3838    -5.0417 H       
  49 H49            3.8023    -5.8677    -4.2736 H       
  50 H50            6.7507    -3.9961    -5.2805 H       
  51 H51           11.7318    -6.3268    -3.3245 H       
  52 H52            7.5663    -8.6471    -1.8511 H       
  53 H53            6.9462    -9.4749    -3.2997 H       
  54 H54            8.6793    -9.0914    -3.1673 H       
  55 H55            4.8583    -8.6259    -4.6154 H       
  56 H56            5.2380    -8.6429    -2.8765 H       
  57 H57            4.1017    -7.4375    -3.5276 H       
  58 H58           11.6907    -3.0752    -2.4420 H       
  59 H59           12.6562    -4.5681    -2.5490 H       
  60 H60           13.4002    -1.8535    -3.7322 H       
  61 H61           14.1415    -2.6141    -2.3036 H       
  62 H62           13.7879    -2.8576    -5.9105 H       
  63 H63           14.7998    -4.3192    -6.0027 H       
  64 H64           12.8381    -5.3483    -7.1972 H       
  65 H65            5.1391    -4.4329    -7.4084 H       
@<TRIPOS>BOND
   1    1    2 1
   2    1   38 1
   3    1   39 1
   4    1   40 1
   5    2    3 1
   6    3    4 1
   7    3   41 1
   8    3   42 1
   9    4    5 1
  10    4   43 1
  11    4   44 1
  12    5    6 am
  13    5   45 1
  14    6    7 2
  15    6    8 1
  16    8   36 ar
  17    8    9 ar
  18    9   10 ar
  19    9   46 1
  20   10   11 ar
  21   10   47 1
  22   11   12 1
  23   11   35 ar
  24   12   13 1
  25   12   48 1
  26   12   49 1
  27   13   24 ar
  28   13   14 ar
  29   14   15 ar
  30   14   50 1
  31   15   21 ar
  32   15   16 1
  33   16   17 2
  34   16   18 am
  35   18   19 1
  36   18   26 1
  37   19   20 2
  38   19   51 1
  39   20   21 1
  40   21   22 ar
  41   22   23 1
  42   22   24 ar
  43   23   52 1
  44   23   53 1
  45   23   54 1
  46   24   25 1
  47   25   55 1
  48   25   56 1
  49   25   57 1
  50   26   27 1
  51   26   32 1
  52   26   28 1
  53   28   29 1
  54   28   58 1
  55   28   59 1
  56   29   30 1
  57   29   60 1
  58   29   61 1
  59   30   31 1
  60   31   32 1
  61   31   62 1
  62   31   63 1
  63   32   33 1
  64   32   34 1
  65   34   64 1
  66   35   36 ar
  67   35   65 1
  68   36   37 1

#	End of record

