#	Name: ASD00740027
#	Creating user name:	WinNT
#	Creation time:	15. 06. 2019 18:37

#	Modifying user name:	WinNT
#	Modification time:	15. 06. 2019 18:37

#	Program:	/corina/corina34_cracker 3.40 0067  02.08.2006

@<TRIPOS>MOLECULE
ASD00740027
  86   90    0    0    0
SMALL
NO_CHARGES


@<TRIPOS>ATOM
   1 C1           -10.2154     5.1962    -8.9468 C.3     
   2 C2            -8.7148     6.5791   -10.2501 C.3     
   3 C3           -16.2588    -2.4075     4.0923 C.3     
   4 C4           -14.7953    -4.4298     3.9881 C.3     
   5 C5           -17.1539    -4.6344     4.7866 C.3     
   6 C6           -20.2851    -5.1022    -2.1162 C.ar    
   7 C7           -21.0766    -6.1327    -1.6478 C.ar    
   8 C8           -19.2270    -4.6398    -1.3572 C.ar    
   9 C9           -12.3996    -3.2589    -2.3301 C.ar    
  10 C10          -13.3974    -2.3463    -4.3193 C.ar    
  11 C11          -11.1897    -2.6915    -2.6765 C.ar    
  12 C12          -12.1877    -1.7788    -4.6660 C.ar    
  13 C13           -4.9178    -0.2687    -4.5294 C.ar    
  14 C14           -4.9946    -1.5101    -3.9752 C.ar    
  15 C15          -19.7487    -6.2453     0.3535 C.ar    
  16 C16          -15.9312    -3.9297     1.2415 C.2     
  17 C17           -7.3216    -0.1175    -4.6767 C.ar    
  18 C18           -7.8791     3.6942    -7.9886 C.3     
  19 C19           -6.7905     3.5113    -6.9292 C.3     
  20 C20           -7.8320     5.1258    -8.5264 C.3     
  21 N21          -21.6118    -7.7492     0.0630 N.pl3   
  22 O22           -7.6598     1.3195    -6.8271 O.2     
  23 O23          -14.3243    -3.3857    -0.6338 O.2     
  24 C24           -6.8370     2.1013    -6.3994 C.2     
  25 C25          -15.0970    -3.7406    -1.5030 C.2     
  26 C26          -20.8106    -6.7077    -0.4108 C.ar    
  27 C27          -13.5069    -3.0879    -3.1505 C.ar    
  28 C28          -11.0800    -1.9497    -3.8457 C.ar    
  29 C29           -6.0737     0.4341    -4.8828 C.ar    
  30 C30          -18.9559    -5.2101    -0.1203 C.ar    
  31 C31          -16.6798    -4.1682     2.3977 C.2     
  32 C32          -16.6905    -4.2893     0.1706 C.2     
  33 C33          -16.2237    -3.9110     3.8108 C.3     
  34 N34          -17.8438    -4.6519     2.0459 N.2     
  35 N35           -5.9641     1.7088    -5.4504 N.am    
  36 N36          -14.7349    -3.6642    -2.7989 N.am    
  37 N37          -16.3157    -4.2103    -1.1704 N.am    
  38 N38           -9.8534    -1.3740    -4.1968 N.pl3   
  39 N39           -8.8772     5.3015    -9.5435 N.3     
  40 N40          -17.8821    -4.7406     0.6484 N.pl3   
  41 N41           -8.6808    -3.2217    -3.3285 N.ar    
  42 C42           -7.5561    -3.8435    -3.0124 C.ar    
  43 N43           -6.3702    -3.3186    -3.2091 N.ar    
  44 C44           -6.2475    -2.0982    -3.7529 C.ar    
  45 C45           -7.4225    -1.3916    -4.1086 C.ar    
  46 C46           -8.6739    -2.0115    -3.8715 C.ar    
  47 H47          -10.9692     5.2599    -9.7316 H       
  48 H48          -10.3087     4.2411    -8.4300 H       
  49 H49          -10.3613     6.0097    -8.2361 H       
  50 H50           -8.7805     7.4001    -9.5361 H       
  51 H51           -7.7420     6.6016   -10.7412 H       
  52 H52           -9.5015     6.6836   -10.9973 H       
  53 H53          -15.5961    -1.8921     3.3971 H       
  54 H54          -17.2764    -2.0379     3.9660 H       
  55 H55          -15.9289    -2.2214     5.1144 H       
  56 H56          -14.4654    -4.2438     5.0102 H       
  57 H57          -14.7703    -5.5009     3.7875 H       
  58 H58          -14.1326    -3.9144     3.2929 H       
  59 H59          -18.1715    -4.2648     4.6603 H       
  60 H60          -17.1289    -5.7055     4.5860 H       
  61 H61          -16.8240    -4.4483     5.8087 H       
  62 H62          -20.4912    -4.6596    -3.0796 H       
  63 H63          -21.9029    -6.4919    -2.2433 H       
  64 H64          -18.6098    -3.8341    -1.7265 H       
  65 H65          -12.4839    -3.8394    -1.4234 H       
  66 H66          -14.2587    -2.2134    -4.9572 H       
  67 H67          -10.3286    -2.8242    -2.0384 H       
  68 H68          -12.1024    -1.2023    -5.5753 H       
  69 H69           -3.9501     0.1815    -4.6943 H       
  70 H70           -4.0925    -2.0404    -3.7079 H       
  71 H71          -19.5400    -6.6902     1.3153 H       
  72 H72          -14.9298    -3.5270     1.2044 H       
  73 H73           -8.2116     0.4290    -4.9516 H       
  74 H74           -7.7118     2.9932    -8.8063 H       
  75 H75           -8.8556     3.5057    -7.5424 H       
  76 H76           -5.8140     3.6998    -7.3754 H       
  77 H77           -6.9578     4.2124    -6.1115 H       
  78 H78           -7.9993     5.8269    -7.7087 H       
  79 H79           -6.8555     5.3143    -8.9726 H       
  80 H80          -22.3544    -8.0715    -0.4715 H       
  81 H81          -21.4256    -8.1501     0.9264 H       
  82 H82           -5.2600     2.3098    -5.1607 H       
  83 H83          -15.3242    -4.0082    -3.4883 H       
  84 H84          -16.9322    -4.4934    -1.8637 H       
  85 H85           -9.8327    -0.5269    -4.6689 H       
  86 H86           -7.6176    -4.8280    -2.5725 H       
@<TRIPOS>BOND
   1    1   39 1
   2    1   47 1
   3    1   48 1
   4    1   49 1
   5    2   39 1
   6    2   50 1
   7    2   51 1
   8    2   52 1
   9    3   33 1
  10    3   53 1
  11    3   54 1
  12    3   55 1
  13    4   33 1
  14    4   56 1
  15    4   57 1
  16    4   58 1
  17    5   33 1
  18    5   59 1
  19    5   60 1
  20    5   61 1
  21    6    7 ar
  22    6    8 ar
  23    6   62 1
  24    7   26 ar
  25    7   63 1
  26    8   30 ar
  27    8   64 1
  28    9   11 ar
  29    9   27 ar
  30    9   65 1
  31   10   12 ar
  32   10   27 ar
  33   10   66 1
  34   11   28 ar
  35   11   67 1
  36   12   28 ar
  37   12   68 1
  38   13   14 ar
  39   13   29 ar
  40   13   69 1
  41   14   44 ar
  42   14   70 1
  43   15   26 ar
  44   15   30 ar
  45   15   71 1
  46   16   31 1
  47   16   32 2
  48   16   72 1
  49   17   29 ar
  50   17   45 ar
  51   17   73 1
  52   18   19 1
  53   18   20 1
  54   18   74 1
  55   18   75 1
  56   19   24 1
  57   19   76 1
  58   19   77 1
  59   20   39 1
  60   20   78 1
  61   20   79 1
  62   21   26 1
  63   21   80 1
  64   21   81 1
  65   22   24 2
  66   23   25 2
  67   24   35 am
  68   25   36 am
  69   25   37 am
  70   27   36 1
  71   28   38 1
  72   29   35 1
  73   30   40 1
  74   31   33 1
  75   31   34 2
  76   32   37 1
  77   32   40 1
  78   34   40 1
  79   35   82 1
  80   36   83 1
  81   37   84 1
  82   38   46 1
  83   38   85 1
  84   41   42 ar
  85   41   46 ar
  86   42   43 ar
  87   42   86 1
  88   43   44 ar
  89   44   45 ar
  90   45   46 ar

#	End of record

