#	Name: ASD03731260
#	Creating user name:	WinNT
#	Creation time:	15. 06. 2019 20:45

#	Modifying user name:	WinNT
#	Modification time:	15. 06. 2019 20:45

#	Program:	/corina/corina34_cracker 3.40 0067  02.08.2006

@<TRIPOS>MOLECULE
ASD03731260
  58   63    0    0    0
SMALL
NO_CHARGES


@<TRIPOS>ATOM
   1 N1            -0.0162     1.3436     0.0094 N.am    
   2 C2             0.0557     0.0127     0.2096 C.2     
   3 O3             1.1394    -0.5296     0.3082 O.2     
   4 N4            -1.0738    -0.7171     0.3004 N.am    
   5 C5            -0.9957    -2.1637     0.5180 C.3     
   6 C6            -2.4087    -2.7468     0.5823 C.3     
   7 O7             2.5512    -7.0747     3.4735 O.3     
   8 C8             3.0219    -8.3606     3.9184 C.3     
   9 O9             1.8580    -8.9639     4.5137 O.3     
  10 C10            0.7884    -8.3982     3.8805 C.ar    
  11 C11            1.2152    -7.2361     3.2420 C.ar    
  12 C12           -0.5361    -8.7879     3.7951 C.ar    
  13 C13           -1.4506    -8.0248     3.0753 C.ar    
  14 C14           -1.0141    -6.8615     2.4486 C.ar    
  15 C15            0.3071    -6.4735     2.5268 C.ar    
  16 O16           -2.7797    -8.2363     2.8541 O.3     
  17 C17           -2.2211    -6.2523     1.7866 C.3     
  18 C18           -3.3934    -7.0028     2.4330 C.3     
  19 N19           -2.3306    -4.1935     0.7999 N.am    
  20 C20           -2.3089    -4.7712     2.0176 C.2     
  21 C21           -2.2014    -6.4220     0.2964 C.ar    
  22 C22           -2.1337    -7.5172    -0.5356 C.ar    
  23 C23           -2.1355    -7.3456    -1.9084 C.ar    
  24 C24           -2.2046    -6.0718    -2.4428 C.ar    
  25 C25           -2.2716    -4.9717    -1.6136 C.ar    
  26 C26           -2.2708    -5.1349    -0.2304 C.ar    
  27 O27           -2.3522    -4.2056     3.0896 O.2     
  28 C28            1.1510     2.1156     0.0124 C.ar    
  29 C29            2.3289     1.5964    -0.5064 C.ar    
  30 C30            3.4826     2.3641    -0.5022 C.ar    
  31 C31            3.4578     3.6497     0.0206 C.ar    
  32 C32            2.2843     4.1648     0.5371 C.ar    
  33 C33            1.1307     3.4045     0.5294 C.ar    
  34 O34            4.6377     1.8585    -1.0091 O.3     
  35 C35            5.7880     2.7055    -0.9721 C.3     
  36 H36           -0.8765     1.7657    -0.1407 H       
  37 H37           -1.9384    -0.2845     0.2217 H       
  38 H38           -0.4490    -2.6258    -0.3040 H       
  39 H39           -0.4775    -2.3626     1.4561 H       
  40 H40           -2.9554    -2.2848     1.4044 H       
  41 H41           -2.9269    -2.5480    -0.3558 H       
  42 H42            3.3710    -8.9540     3.0733 H       
  43 H43            3.8135    -8.2437     4.6585 H       
  44 H44           -0.8628    -9.6903     4.2904 H       
  45 H45            0.6343    -5.5726     2.0291 H       
  46 H46           -4.1813    -7.1916     1.7038 H       
  47 H47           -3.7812    -6.4512     3.2894 H       
  48 H48           -2.0796    -8.5109    -0.1161 H       
  49 H49           -2.0833    -8.2043    -2.5613 H       
  50 H50           -2.2059    -5.9379    -3.5144 H       
  51 H51           -2.3248    -3.9801    -2.0383 H       
  52 H52            2.3464     0.5957    -0.9124 H       
  53 H53            4.3569     4.2481     0.0239 H       
  54 H54            2.2678     5.1653     0.9436 H       
  55 H55            0.2137     3.8110     0.9297 H       
  56 H56            5.5898     3.6125    -1.5432 H       
  57 H57            6.0123     2.9687     0.0616 H       
  58 H58            6.6393     2.1813    -1.4065 H       
@<TRIPOS>BOND
   1    1    2 am
   2    1   28 1
   3    1   36 1
   4    2    3 2
   5    2    4 am
   6    4    5 1
   7    4   37 1
   8    5    6 1
   9    5   38 1
  10    5   39 1
  11    6   19 1
  12    6   40 1
  13    6   41 1
  14    7    8 1
  15    7   11 1
  16    8    9 1
  17    8   42 1
  18    8   43 1
  19    9   10 1
  20   10   11 ar
  21   10   12 ar
  22   11   15 ar
  23   12   13 ar
  24   12   44 1
  25   13   14 ar
  26   13   16 1
  27   14   15 ar
  28   14   17 1
  29   15   45 1
  30   16   18 1
  31   17   18 1
  32   17   20 1
  33   17   21 1
  34   18   46 1
  35   18   47 1
  36   19   20 am
  37   19   26 1
  38   20   27 2
  39   21   22 ar
  40   21   26 ar
  41   22   23 ar
  42   22   48 1
  43   23   24 ar
  44   23   49 1
  45   24   25 ar
  46   24   50 1
  47   25   26 ar
  48   25   51 1
  49   28   29 ar
  50   28   33 ar
  51   29   30 ar
  52   29   52 1
  53   30   31 ar
  54   30   34 1
  55   31   32 ar
  56   31   53 1
  57   32   33 ar
  58   32   54 1
  59   33   55 1
  60   34   35 1
  61   35   56 1
  62   35   57 1
  63   35   58 1

#	End of record

